                                   MODFLOW 6
                U.S. GEOLOGICAL SURVEY MODULAR HYDROLOGIC MODEL
                          GROUNDWATER FLOW MODEL (GWF)
                            VERSION 6.1.0 12/12/2019

   MODFLOW 6 compiled Dec 12 2019 13:30:12 with IFORT compiler (ver. 19.0.5)

This software has been approved for release by the U.S. Geological 
Survey (USGS). Although the software has been subjected to rigorous 
review, the USGS reserves the right to update the software as needed 
pursuant to further analysis and review. No warranty, expressed or 
implied, is made by the USGS or the U.S. Government as to the 
functionality of the software and related material nor shall the 
fact of release constitute any such warranty. Furthermore, the 
software is released on condition that neither the USGS nor the U.S. 
Government shall be held liable for any damages resulting from its 
authorized or unauthorized use. Also refer to the USGS Water 
Resources Software User Rights Notice for complete use, copyright, 
and distribution information.


MODFLOW was compiled using uniform precision.
Precision of REAL variables: 15


 OPENED benchmark_mf6.dis
 FILE TYPE:DIS6                   UNIT 1005   STATUS:OLD                 
 FORMAT:FORMATTED              ACCESS:SEQUENTIAL          
 ACTION:READ                


 OPENED benchmark_mf6.ic
 FILE TYPE:IC6                    UNIT 1006   STATUS:OLD                 
 FORMAT:FORMATTED              ACCESS:SEQUENTIAL          
 ACTION:READ                


 OPENED benchmark_mf6.npf
 FILE TYPE:NPF6                   UNIT 1007   STATUS:OLD                 
 FORMAT:FORMATTED              ACCESS:SEQUENTIAL          
 ACTION:READ                


 OPENED benchmark_mf6.rch
 FILE TYPE:RCH6                   UNIT 1008   STATUS:OLD                 
 FORMAT:FORMATTED              ACCESS:SEQUENTIAL          
 ACTION:READ                


 OPENED benchmark_mf6.chd
 FILE TYPE:CHD6                   UNIT 1009   STATUS:OLD                 
 FORMAT:FORMATTED              ACCESS:SEQUENTIAL          
 ACTION:READ                


 OPENED benchmark_mf6.oc
 FILE TYPE:OC6                    UNIT 1010   STATUS:OLD                 
 FORMAT:FORMATTED              ACCESS:SEQUENTIAL          
 ACTION:READ                

 NAMEFILE OPTIONS:
    NEWTON-RAPHSON method enabled for the model.
    NEWTON-RAPHSON UNDER-RELAXATION based on the bottom elevation of the model will be applied to the model.

 DIS -- STRUCTURED GRID DISCRETIZATION PACKAGE, VERSION 2 : 3/27/2014 - INPUT READ FROM UNIT 1005


 PROCESSING DISCRETIZATION OPTIONS
 END OF DISCRETIZATION OPTIONS
 MODEL LENGTH UNIT IS UNDEFINED
 PROCESSING DISCRETIZATION DIMENSIONS
    NLAY =       2
    NROW =       1
    NCOL =    1000
 END OF DISCRETIZATION DIMENSIONS
 PROCESSING GRIDDATA

                     DELR =   10.00000    

                     DELC =   1.000000    
 END PROCESSING GRIDDATA

 NPF -- NODE PROPERTY FLOW PACKAGE, VERSION 1, 3/30/2015 INPUT READ FROM UNIT 1007


 PROCESSING NPF OPTIONS
    CELL-BY-CELL FLOW INFORMATION WILL BE SAVED TO BINARY FILE WHENEVER ICBCFL IS NOT ZERO.
 END OF NPF OPTIONS

 RCH   -- RCH PACKAGE, VERSION 8, 2/22/2014 INPUT READ FROM UNIT 1008

 PROCESSING RCH OPTIONS
    RECHARGE WILL BE APPLIED TO SPECIFIED CELL.
 END OF RCH OPTIONS

 PROCESSING RCH DIMENSIONS
    MAXBOUND =    2000
 END OF RCH DIMENSIONS

 CHD   -- CHD PACKAGE, VERSION 8, 2/22/2014 INPUT READ FROM UNIT 1009

 PROCESSING CHD OPTIONS
    FLOWS WILL BE SAVED TO BUDGET FILE SPECIFIED IN OUTPUT CONTROL
 END OF CHD OPTIONS

 PROCESSING CHD DIMENSIONS
    MAXBOUND =       2
 END OF CHD DIMENSIONS

 IC -- INITIAL CONDITIONS PACKAGE, VERSION 8, 3/28/2015 INPUT READ FROM UNIT 1006
 PROCESSING GRIDDATA
 END PROCESSING GRIDDATA
 PROCESSING GRIDDATA

                ICELLTYPE = 1

                        K =  0.1000000E-02 FOR LAYER 1

                        K =  0.1000000E-04 FOR LAYER 2

                      K33 =  0.1000000E-03 FOR LAYER 1

                      K33 =  0.1000000E-05 FOR LAYER 2

                   WETDRY =  -1.000000    
 K22 not provided.  Assuming K22 = K.
 END PROCESSING GRIDDATA
    BINARY GRID INFORMATION WILL BE WRITTEN TO:
      UNIT NUMBER: 1012
      FILE NAME: F:\veeth\OneDrive - stud.uni-stuttgart.de\[kup]\ModFlow\projs\mf5-mf6_benchmarks\scripts\mf6 benchmark\data\benchmark_mf6.dis.grb

 OPENED F:\veeth\OneDrive - stud.uni-stuttgart.de\[kup]\ModFlow\projs\mf5-mf6_benchmarks\scripts\mf6 benchmark\data\benchmark_mf6.dis.grb
 FILE TYPE:DATA(BINARY)   UNIT 1012   STATUS:REPLACE             
 FORMAT:UNFORMATTED            ACCESS:STREAM              
 ACTION:READWRITE           

      THE LAST TIME STEP WILL BE PRINTED
      THE LAST TIME STEP WILL BE PRINTED
 PROCESSING OC OPTIONS
    BUDGET INFORMATION WILL BE WRITTEN TO:
      UNIT NUMBER: 1013
      FILE NAME: benchmark_mf6.cbb

 OPENED benchmark_mf6.cbb
 FILE TYPE:DATA(BINARY)   UNIT 1013   STATUS:REPLACE             
 FORMAT:UNFORMATTED            ACCESS:STREAM              
 ACTION:READWRITE           

    HEAD INFORMATION WILL BE WRITTEN TO:
      UNIT NUMBER: 1014
      FILE NAME: benchmark_mf6.hds

 OPENED benchmark_mf6.hds
 FILE TYPE:DATA(BINARY)   UNIT 1014   STATUS:REPLACE             
 FORMAT:UNFORMATTED            ACCESS:STREAM              
 ACTION:READWRITE           

 END OF OC OPTIONS

 BEGIN READING OUTPUT CONTROL FOR STRESS PERIOD 1
      ALL TIME STEPS WILL BE SAVED
      ALL TIME STEPS WILL BE SAVED
      THE LAST TIME STEP WILL BE PRINTED

 END READING OUTPUT CONTROL FOR STRESS PERIOD 1

 INNER ITERATION SUMMARY
 --------------------------------------------------------------------------------------------------------------------------------
     TOTAL      OUTER     INNER                    MAXIMUM CHANGE        MAXIMUM                  MAXIMUM RESIDUAL        MAXIMUM
 ITERATION  ITERATION ITERATION                    MODEL-(CELLID)         CHANGE                    MODEL-(CELLID)       RESIDUAL
 --------------------------------------------------------------------------------------------------------------------------------
          1         1         1                  1_GWF-(2,1,1000)  -3.641091                      1_GWF-(2,1,1000) -0.2991433E-06
          2         1         2                  1_GWF-(2,1,1000) -0.1705518E-01                  1_GWF-(2,1,1000)  0.1193180E-07
          3         1         3                  1_GWF-(2,1,1000)  0.6453886E-03                     1_GWF-(2,1,5) -0.1750974E-10
          4         1         4                  1_GWF-(2,1,1000) -0.4376435E-06                     1_GWF-(2,1,5)  0.6208805E-13
          5         1         5                  1_GWF-(2,1,1000)  0.8730768E-09                     1_GWF-(2,1,5)  0.3436236E-14
          6         1         6                  1_GWF-(2,1,1000)  0.3391020E-12                  1_GWF-(2,1,1000) -0.7121016E-14
          7         2         1                  1_GWF-(2,1,1000)  -12.13606                      1_GWF-(2,1,1000)  0.6806485E-03
          8         2         2                  1_GWF-(2,1,1000)  -9.101247                      1_GWF-(2,1,1000)  0.1568472E-03
          9         2         3                  1_GWF-(2,1,1000)   116.2768                      1_GWF-(2,1,1000)  0.2421432E-02
         10         2         4                  1_GWF-(2,1,1000)  -126.1170                      1_GWF-(2,1,1000)  0.1297496E-03
         11         2         5                  1_GWF-(2,1,1000)  -2.727706                      1_GWF-(2,1,1000)  0.2611727E-04
         12         2         6                  1_GWF-(2,1,1000)  -1.636110                      1_GWF-(2,1,1000)  0.1699745E-05
         13         2         7                  1_GWF-(2,1,1000) -0.9382524                      1_GWF-(2,1,1000) -0.2070029E-06
         14         2         8                  1_GWF-(2,1,1000) -0.3104203                      1_GWF-(2,1,1000) -0.4230326E-06
         15         2         9                  1_GWF-(2,1,1000) -0.2015416                      1_GWF-(2,1,1000)  0.1707597E-06
         16         2        10                  1_GWF-(2,1,1000)  0.2006656E-02                  1_GWF-(2,1,1000) -0.8700731E-06
         17         2        11                  1_GWF-(2,1,1000) -0.6106865E-01                  1_GWF-(2,1,1000) -0.2598967E-06
         18         2        12                  1_GWF-(2,1,1000) -0.5988690E-02                  1_GWF-(2,1,1000) -0.2132553E-07
         19         2        13                  1_GWF-(2,1,1000) -0.1642613E-02                  1_GWF-(2,1,1000) -0.3504070E-09
         20         2        14                  1_GWF-(2,1,1000) -0.1045259E-03                  1_GWF-(2,1,1000)  0.3180432E-10
         21         2        15                  1_GWF-(2,1,1000) -0.8374514E-05                  1_GWF-(1,1,1000) -0.1754167E-12
         22         2        16                  1_GWF-(2,1,1000) -0.9003171E-06                  1_GWF-(2,1,1000) -0.8909720E-13
         23         2        17                  1_GWF-(2,1,1000) -0.9002454E-07                  1_GWF-(2,1,1000)  0.8671704E-13
         24         2        18                  1_GWF-(2,1,1000)  0.4054748E-07                  1_GWF-(2,1,1000)  0.1238057E-13
         25         2        19                  1_GWF-(2,1,1000)  0.2666287E-12                  1_GWF-(2,1,1000)  0.1237893E-13
         26         3         1                  1_GWF-(2,1,1000) -0.7770617E-01                  1_GWF-(2,1,1000) -0.2475274E-03
         27         3         2                  1_GWF-(2,1,1000) -0.1150555E-01                  1_GWF-(2,1,1000)  0.2857379E-05
         28         3         3                  1_GWF-(2,1,1000)  0.1163521E-02                  1_GWF-(2,1,1000) -0.1437479E-05
         29         3         4                  1_GWF-(2,1,1000) -0.5209619E-03                  1_GWF-(2,1,1000)  0.3841691E-06
         30         3         5                  1_GWF-(2,1,1000)  0.1027398E-03                  1_GWF-(2,1,1000)  0.3388267E-08
         31         3         6                  1_GWF-(2,1,1000) -0.3882556E-05                  1_GWF-(2,1,1000) -0.2826526E-09
         32         3         7                  1_GWF-(2,1,1000)  0.5901712E-06                  1_GWF-(2,1,1000)  0.1207772E-09
         33         3         8                  1_GWF-(2,1,1000)  0.6828286E-07                  1_GWF-(2,1,1000)  0.1746619E-11
         34         3         9                  1_GWF-(2,1,1000) -0.6949623E-09                  1_GWF-(2,1,1000) -0.2219093E-12
         35         3        10                  1_GWF-(2,1,1000)  0.1260144E-09                   1_GWF-(2,1,207)  0.2244527E-13
         36         3        11                  1_GWF-(2,1,1000)  0.8786474E-11                   1_GWF-(2,1,209)  0.1129840E-13
         37         3        12                  1_GWF-(2,1,1000)  0.8187757E-12                   1_GWF-(2,1,207)  0.9834929E-14
         38         3        13                  1_GWF-(2,1,1000) -0.4750205E-11                   1_GWF-(2,1,209)  0.2039247E-13
         39         3        14                  1_GWF-(2,1,1000)  0.1348828E-12                   1_GWF-(2,1,207)  0.2501973E-13
         40         3        15                  1_GWF-(2,1,1000)  0.1869895E-11                   1_GWF-(2,1,207)  0.2053422E-13
         41         3        16                  1_GWF-(2,1,1000)  0.3237512E-11                   1_GWF-(2,1,207)  0.2714035E-13
         42         3        17                  1_GWF-(2,1,1000)  0.2072565E-11                   1_GWF-(2,1,207)  0.7615994E-15
         43         3        18                  1_GWF-(2,1,1000)  0.6289977E-13                  1_GWF-(1,1,1000) -0.7276973E-14
         44         3        19                   1_GWF-(2,1,999) -0.2416671E-13                  1_GWF-(1,1,1000) -0.7276959E-14
         45         4         1                  1_GWF-(2,1,1000)  0.5753144                      1_GWF-(2,1,1000)  0.2996857E-03
         46         4         2                  1_GWF-(2,1,1000)  0.3623743                      1_GWF-(2,1,1000) -0.1920360E-04
         47         4         3                  1_GWF-(2,1,1000) -0.2129216                      1_GWF-(2,1,1000)  0.2689604E-04
         48         4         4                  1_GWF-(2,1,1000) -0.1324476E-01                  1_GWF-(2,1,1000)  0.1576569E-04
         49         4         5                  1_GWF-(2,1,1000)  0.4326408E-01                   1_GWF-(2,1,879)  0.1742805E-06
         50         4         6                  1_GWF-(2,1,1000)  0.4185529E-03                   1_GWF-(2,1,883)  0.8605764E-07
         51         4         7                  1_GWF-(2,1,1000)  0.1358652E-02                   1_GWF-(2,1,885)  0.4487433E-07
         52         4         8                  1_GWF-(2,1,1000)  0.8241651E-05                   1_GWF-(2,1,883)  0.3253233E-07
         53         4         9                  1_GWF-(2,1,1000) -0.2277246E-04                   1_GWF-(2,1,893) -0.4018813E-06
         54         4        10                  1_GWF-(2,1,1000)  0.2115615E-04                   1_GWF-(2,1,889) -0.1015666E-07
         55         4        11                  1_GWF-(2,1,1000) -0.4008614E-05                   1_GWF-(2,1,889) -0.1168522E-07
         56         4        12                  1_GWF-(2,1,1000) -0.4256284E-06                   1_GWF-(2,1,885) -0.5991945E-08
         57         4        13                  1_GWF-(2,1,1000) -0.1961484E-06                   1_GWF-(2,1,893) -0.4191469E-08
         58         4        14                  1_GWF-(2,1,1000)  0.8050719E-07                   1_GWF-(2,1,893)  0.4234201E-09
         59         4        15                  1_GWF-(2,1,1000) -0.1031936E-06                   1_GWF-(2,1,887)  0.7391312E-11
         60         4        16                  1_GWF-(2,1,1000) -0.1811562E-07                   1_GWF-(2,1,889)  0.3695992E-11
         61         4        17                  1_GWF-(2,1,1000)  0.4717207E-08                   1_GWF-(2,1,891)  0.9525086E-12
         62         4        18                  1_GWF-(2,1,1000)  0.3756645E-08                   1_GWF-(2,1,893) -0.4540885E-13
         63         4        19                  1_GWF-(2,1,1000) -0.8734809E-10                   1_GWF-(2,1,205) -0.4000508E-13
         64         4        20                  1_GWF-(2,1,1000)  0.1023834E-12                   1_GWF-(2,1,205) -0.3987708E-13
         65         4        21                  1_GWF-(2,1,1000)  0.1932283E-10                   1_GWF-(2,1,205) -0.3309910E-13
         66         4        22                  1_GWF-(2,1,1000)  0.9064078E-11                   1_GWF-(2,1,205) -0.3011857E-13
         67         4        23                  1_GWF-(2,1,1000) -0.3382940E-11                   1_GWF-(2,1,205) -0.3120657E-13
         68         4        24                  1_GWF-(2,1,1000) -0.1900577E-10                   1_GWF-(2,1,205) -0.3692910E-13
         69         4        25                  1_GWF-(2,1,1000)  0.7484894E-10                  1_GWF-(1,1,1000)  0.2040312E-13
         70         4        26                  1_GWF-(2,1,1000)  0.1530850E-09                  1_GWF-(1,1,1000)  0.3842431E-13
         71         4        27                  1_GWF-(2,1,1000) -0.1965171E-09                   1_GWF-(2,1,205) -0.2819607E-13
         72         4        28                  1_GWF-(2,1,1000) -0.4182148E-10                   1_GWF-(2,1,205) -0.4051496E-13
         73         4        29                  1_GWF-(2,1,1000)  0.1183281E-09                  1_GWF-(1,1,1000)  0.2176074E-13
         74         4        30                  1_GWF-(2,1,1000)  0.2316869E-10                  1_GWF-(1,1,1000)  0.4058466E-13
         75         4        31                  1_GWF-(2,1,1000)  0.6860649E-11                  1_GWF-(1,1,1000)  0.4458055E-13
         76         4        32                  1_GWF-(2,1,1000) -0.1192338E-08                  1_GWF-(1,1,1000)  0.3439915E-12
         77         4        33                  1_GWF-(2,1,1000)  0.9642527E-09                   1_GWF-(2,1,205) -0.6274632E-13
         78         4        34                  1_GWF-(2,1,1000)  0.2209880E-09                  1_GWF-(2,1,1000)  0.4733789E-13
         79         4        35                  1_GWF-(2,1,1000)  0.8375905E-12                  1_GWF-(2,1,1000)  0.4970534E-13
         80         4        36                  1_GWF-(2,1,1000)  0.9127547E-10                  1_GWF-(2,1,1000)  0.3526654E-12
         81         4        37                  1_GWF-(2,1,1000) -0.9184001E-10                  1_GWF-(1,1,1000) -0.3628696E-13
         82         4        38                  1_GWF-(2,1,1000)  0.4718355E-12                  1_GWF-(1,1,1000) -0.4920222E-13
         83         4        39                  1_GWF-(2,1,1000)  0.1150462E-12                  1_GWF-(1,1,1000) -0.4775716E-13
         84         5         1                  1_GWF-(2,1,1000)  0.1760450                      1_GWF-(1,1,1000)  0.8179904E-04
         85         5         2                  1_GWF-(2,1,1000) -0.1304750E-03                  1_GWF-(1,1,1000)  0.3438252E-05
         86         5         3                  1_GWF-(2,1,1000)  0.5053041E-04                  1_GWF-(1,1,1000) -0.8481506E-06
         87         5         4                  1_GWF-(2,1,1000)  0.6791537E-05                  1_GWF-(1,1,1000)  0.6390817E-08
         88         5         5                  1_GWF-(2,1,1000)  0.3299047E-07                  1_GWF-(1,1,1000) -0.3627296E-08
         89         5         6                  1_GWF-(2,1,1000)  0.5813912E-08                  1_GWF-(1,1,1000) -0.7888435E-09
         90         5         7                  1_GWF-(2,1,1000) -0.1013292E-07                  1_GWF-(1,1,1000)  0.1919420E-10
         91         5         8                  1_GWF-(2,1,1000) -0.1999879E-09                  1_GWF-(1,1,1000)  0.9869015E-12
         92         5         9                  1_GWF-(2,1,1000) -0.4701046E-11                  1_GWF-(1,1,1000)  0.3636360E-13
         93         5        10                  1_GWF-(2,1,1000) -0.5592918E-13                  1_GWF-(1,1,1000)  0.4475543E-13
         94         5        11                  1_GWF-(2,1,1000)  0.9509172E-12                  1_GWF-(2,1,1000) -0.1000301E-13
         95         5        12                  1_GWF-(2,1,1000)  0.3117347E-12                  1_GWF-(2,1,1000) -0.4140449E-13
         96         5        13                  1_GWF-(2,1,1000)  0.5533498E-13                  1_GWF-(2,1,1000) -0.4545731E-13
         97         5        14                  1_GWF-(2,1,1000) -0.5016346E-11                  1_GWF-(1,1,1000) -0.8890858E-13
         98         5        15                  1_GWF-(2,1,1000)  0.5144912E-11                  1_GWF-(2,1,1000)  0.7614897E-14
         99         5        16                  1_GWF-(2,1,1000) -0.5455924E-13                  1_GWF-(2,1,1000)  0.2755314E-13
        100         5        17                  1_GWF-(2,1,1000) -0.6405452E-13                  1_GWF-(2,1,1000)  0.1573800E-13
        101         5        18                  1_GWF-(2,1,1000)  0.1768475E-10                  1_GWF-(2,1,1000)  0.8259022E-11
        102         5        19                  1_GWF-(2,1,1000) -0.1800264E-10                  1_GWF-(2,1,1000) -0.2507905E-13
        103         5        20                   1_GWF-(2,1,999)  0.8322169E-09                  1_GWF-(2,1,1000) -0.3270633E-13
        104         6         1                  1_GWF-(2,1,1000)  0.4590513E-02                   1_GWF-(2,1,339) -0.7335595E-08
        105         6         2                  1_GWF-(2,1,1000) -0.6723582E-10                   1_GWF-(2,1,341) -0.1245839E-10
        106         6         3                  1_GWF-(2,1,1000)  0.4659528E-13                   1_GWF-(2,1,325) -0.1538220E-14
        107         6         4                   1_GWF-(2,1,999)  0.5018632E-13                  1_GWF-(2,1,1000)  0.2841549E-13
        108         7         1                  1_GWF-(2,1,1000)  0.2618210E-01                  1_GWF-(2,1,1000) -0.5316267E-06
        109         7         2                  1_GWF-(2,1,1000) -0.1169571E-05                  1_GWF-(2,1,1000)  0.2495151E-08
        110         7         3                  1_GWF-(2,1,1000)  0.4692319E-07                   1_GWF-(2,1,279) -0.1430246E-10
        111         7         4                  1_GWF-(2,1,1000) -0.6441714E-09                   1_GWF-(2,1,279) -0.8722037E-13
        112         7         5                  1_GWF-(2,1,1000)  0.2386206E-11                   1_GWF-(2,1,279) -0.3275109E-13
        113         7         6                   1_GWF-(2,1,999)  0.6177131E-08                   1_GWF-(2,1,279) -0.4149149E-13
        114         7         7                  1_GWF-(2,1,1000) -0.2053363E-12                   1_GWF-(2,1,279)  0.4230244E-14
        115         7         8                  1_GWF-(2,1,1000)  0.5609273E-13                  1_GWF-(1,1,1000) -0.1459477E-13
        116         7         9                  1_GWF-(2,1,1000) -0.5711204E-13                  1_GWF-(2,1,1000) -0.1378280E-13
        117         7        10                  1_GWF-(2,1,1000) -0.4899334E-12                   1_GWF-(2,1,279)  0.1100474E-12
        118         7        11                  1_GWF-(2,1,1000)  0.4838871E-12                  1_GWF-(1,1,1000) -0.1039104E-13
        119         7        12                  1_GWF-(2,1,1000)  0.2943226E-14                   1_GWF-(2,1,279)  0.2507402E-14
        120         8         1                  1_GWF-(2,1,1000)  0.6413572E-01                  1_GWF-(2,1,1000) -0.1345266E-04
        121         8         2                  1_GWF-(2,1,1000) -0.2522813E-03                  1_GWF-(2,1,1000)  0.1395663E-06
        122         8         3                  1_GWF-(2,1,1000)  0.2105619E-04                  1_GWF-(2,1,1000) -0.5202314E-08
        123         8         4                  1_GWF-(2,1,1000) -0.6866371E-06                  1_GWF-(2,1,1000)  0.2154620E-08
        124         8         5                  1_GWF-(2,1,1000)  0.1565025E-06                  1_GWF-(2,1,1000) -0.1035768E-10
        125         8         6                  1_GWF-(2,1,1000)  0.1141542E-08                  1_GWF-(2,1,1000)  0.1616115E-12
        126         8         7                  1_GWF-(2,1,1000) -0.4792437E-11                  1_GWF-(2,1,1000) -0.1498777E-12
        127         8         8                  1_GWF-(2,1,1000)  0.2774823E-11                  1_GWF-(1,1,1000) -0.1514502E-13
        128         8         9                   1_GWF-(2,1,999)  0.2635697E-09                  1_GWF-(1,1,1000) -0.1492060E-13
        129         9         1                  1_GWF-(2,1,1000)  0.6899345E-02                   1_GWF-(2,1,273)  0.5500354E-08
        130         9         2                  1_GWF-(2,1,1000)  0.6065529E-09                  1_GWF-(2,1,1000)  0.1438666E-11
        131         9         3                  1_GWF-(2,1,1000) -0.1495325E-12                   1_GWF-(2,1,273)  0.8089527E-13
        132         9         4                  1_GWF-(2,1,1000)  0.1317925E-13                   1_GWF-(2,1,273)  0.3220580E-14
        133         9         5                   1_GWF-(2,1,999)  0.2715323E-11                   1_GWF-(2,1,273)  0.3214503E-14
        134        10         1                  1_GWF-(2,1,1000)  0.1572882E-01                  1_GWF-(2,1,1000) -0.9967859E-07
        135        10         2                  1_GWF-(2,1,1000) -0.1367976E-06                   1_GWF-(2,1,271)  0.1943463E-09
        136        10         3                  1_GWF-(2,1,1000)  0.1667578E-08                   1_GWF-(2,1,271)  0.1701697E-11
        137        10         4                  1_GWF-(2,1,1000)  0.9161903E-13                   1_GWF-(2,1,271) -0.8780028E-13
        138        10         5                  1_GWF-(2,1,1000) -0.4302671E-13                   1_GWF-(2,1,271)  0.1217125E-13
        139        10         6                   1_GWF-(2,1,999) -0.2281932E-09                   1_GWF-(2,1,271)  0.1462163E-13
        140        11         1                  1_GWF-(2,1,1000)  0.1493472E-01                   1_GWF-(2,1,271) -0.7388152E-07
        141        11         2                  1_GWF-(2,1,1000) -0.4299338E-07                  1_GWF-(2,1,1000)  0.3613643E-09
        142        11         3                  1_GWF-(2,1,1000)  0.1059955E-08                  1_GWF-(2,1,1000) -0.2166885E-11
        143        11         4                  1_GWF-(2,1,1000) -0.1035199E-10                   1_GWF-(2,1,271)  0.6598767E-13
        144        11         5                  1_GWF-(2,1,1000)  0.3511249E-12                   1_GWF-(2,1,271) -0.4615995E-14
        145        11         6                   1_GWF-(2,1,999)  0.4000471E-09                  1_GWF-(1,1,1000)  0.2822681E-13
        146        12         1                  1_GWF-(2,1,1000)  0.7846578E-02                   1_GWF-(2,1,269) -0.1784605E-07
        147        12         2                  1_GWF-(2,1,1000) -0.4372980E-08                   1_GWF-(2,1,269)  0.2331478E-09
        148        12         3                  1_GWF-(2,1,1000)  0.3942870E-11                   1_GWF-(2,1,269)  0.6127352E-13
        149        12         4                  1_GWF-(2,1,1000)  0.4966838E-13                   1_GWF-(2,1,275) -0.5996955E-15
        150        12         5                   1_GWF-(2,1,999)  0.3589040E-14                   1_GWF-(2,1,275) -0.5997252E-15
        151        13         1                  1_GWF-(2,1,1000)  0.9428039E-02                   1_GWF-(2,1,267) -0.1884097E-07
        152        13         2                  1_GWF-(2,1,1000) -0.5511899E-07                   1_GWF-(2,1,270)  0.1760205E-10
        153        13         3                  1_GWF-(2,1,1000)  0.1033906E-09                   1_GWF-(2,1,271) -0.6933749E-13
        154        13         4                  1_GWF-(2,1,1000)  0.2340552E-12                   1_GWF-(2,1,271) -0.1103259E-13
        155        13         5                   1_GWF-(2,1,999) -0.1030391E-09                   1_GWF-(2,1,271) -0.1117074E-13
        156        14         1                  1_GWF-(2,1,1000)  0.3222759E-01                  1_GWF-(2,1,1000) -0.1171835E-05
        157        14         2                  1_GWF-(2,1,1000) -0.1559524E-04                   1_GWF-(2,1,265) -0.4907943E-08
        158        14         3                  1_GWF-(2,1,1000)  0.4084756E-06                   1_GWF-(2,1,265)  0.2298681E-09
        159        14         4                  1_GWF-(2,1,1000) -0.1038559E-07                  1_GWF-(2,1,1000)  0.3293035E-11
        160        14         5                  1_GWF-(2,1,1000)  0.1188632E-09                   1_GWF-(2,1,265) -0.6317043E-13
        161        14         6                  1_GWF-(2,1,1000)  0.2765931E-11                  1_GWF-(1,1,1000) -0.8704015E-14
        162        14         7                  1_GWF-(2,1,1000) -0.1400855E-13                  1_GWF-(1,1,1000) -0.8875687E-14
        163        15         1                  1_GWF-(2,1,1000)  0.3408383E-02                   1_GWF-(2,1,269) -0.2582441E-09
        164        15         2                  1_GWF-(2,1,1000)  0.5205738E-11                   1_GWF-(2,1,265)  0.1248468E-12
        165        15         3                   1_GWF-(2,1,999) -0.6199902E-11                   1_GWF-(2,1,269) -0.1181485E-14
        166        15         4                   1_GWF-(2,1,999)  0.3731785E-13                   1_GWF-(2,1,269) -0.1182479E-14
        167        16         1                  1_GWF-(2,1,1000)  0.6737736E-02                   1_GWF-(2,1,264)  0.6288344E-08
        168        16         2                  1_GWF-(2,1,1000) -0.6830719E-08                   1_GWF-(2,1,265)  0.3768382E-11
        169        16         3                  1_GWF-(2,1,1000)  0.2818131E-11                   1_GWF-(2,1,267) -0.8043348E-13
        170        16         4                  1_GWF-(2,1,1000)  0.4397555E-13                   1_GWF-(2,1,267)  0.1207384E-14
        171        16         5                   1_GWF-(2,1,999)  0.7734528E-13                   1_GWF-(2,1,267)  0.1208032E-14
        172        17         1                  1_GWF-(2,1,1000)  0.4426963E-01                  1_GWF-(2,1,1000) -0.6571469E-05
        173        17         2                  1_GWF-(2,1,1000) -0.1096814E-03                  1_GWF-(2,1,1000)  0.1047957E-07
        174        17         3                  1_GWF-(2,1,1000)  0.3955489E-05                   1_GWF-(2,1,263)  0.3360395E-09
        175        17         4                  1_GWF-(2,1,1000) -0.5588209E-07                   1_GWF-(2,1,263)  0.3591986E-10
        176        17         5                  1_GWF-(2,1,1000) -0.1082126E-07                   1_GWF-(2,1,263) -0.2551034E-12
        177        17         6                  1_GWF-(2,1,1000) -0.9031371E-10                   1_GWF-(2,1,299)  0.3884908E-13
        178        17         7                  1_GWF-(2,1,1000) -0.2320156E-11                  1_GWF-(1,1,1000)  0.2226034E-13
        179        17         8                  1_GWF-(2,1,1000) -0.1310719E-12                   1_GWF-(2,1,261) -0.1886989E-13
        180        18         1                  1_GWF-(2,1,1000)  0.2546260E-01                  1_GWF-(2,1,1000) -0.6679043E-06
        181        18         2                  1_GWF-(2,1,1000)  0.1057749E-05                  1_GWF-(2,1,1000)  0.3815110E-08
        182        18         3                  1_GWF-(2,1,1000) -0.1948182E-07                   1_GWF-(2,1,261) -0.4785365E-10
        183        18         4                  1_GWF-(2,1,1000) -0.3395372E-10                   1_GWF-(2,1,261)  0.3366801E-11
        184        18         5                  1_GWF-(2,1,1000)  0.2729524E-11                   1_GWF-(2,1,757) -0.1030912E-11
        185        18         6                  1_GWF-(2,1,1000) -0.1171709E-11                  1_GWF-(2,1,1000) -0.1170243E-13
        186        18         7                   1_GWF-(2,1,999) -0.1552043E-12                  1_GWF-(2,1,1000) -0.1170194E-13
        187        19         1                  1_GWF-(2,1,1000)  0.4572143E-02                   1_GWF-(2,1,259) -0.3852044E-07
        188        19         2                  1_GWF-(2,1,1000)  0.8232470E-09                   1_GWF-(2,1,265) -0.3067409E-11
        189        19         3                  1_GWF-(2,1,1000) -0.4208318E-12                   1_GWF-(2,1,265) -0.1093075E-12
        190        19         4                  1_GWF-(2,1,1000)  0.4577057E-13                   1_GWF-(2,1,265) -0.3836151E-14
        191        19         5                   1_GWF-(2,1,999) -0.2107607E-12                   1_GWF-(2,1,265) -0.3824117E-14
        192        20         1                  1_GWF-(2,1,1000)  0.4242975E-02                   1_GWF-(2,1,261) -0.1631495E-07
        193        20         2                  1_GWF-(2,1,1000)  0.3419554E-08                   1_GWF-(2,1,259) -0.3316240E-11
        194        20         3                  1_GWF-(2,1,1000) -0.2212920E-11                   1_GWF-(2,1,259)  0.8227421E-13
        195        20         4                   1_GWF-(2,1,999)  0.2338207E-09                   1_GWF-(2,1,259)  0.7925070E-13
        196        21         1                  1_GWF-(2,1,1000)  0.2354886E-01                  1_GWF-(2,1,1000) -0.5942322E-06
        197        21         2                  1_GWF-(2,1,1000) -0.1673222E-05                   1_GWF-(2,1,259) -0.1091390E-08
        198        21         3                  1_GWF-(2,1,1000)  0.1428053E-07                  1_GWF-(2,1,1000)  0.8939173E-10
        199        21         4                  1_GWF-(2,1,1000) -0.1235001E-08                   1_GWF-(2,1,259)  0.8995283E-13
        200        21         5                  1_GWF-(2,1,1000) -0.4431506E-12                   1_GWF-(2,1,263)  0.3333225E-13
        201        21         6                  1_GWF-(2,1,1000)  0.1195632E-12                   1_GWF-(2,1,255)  0.5466443E-14
        202        21         7                   1_GWF-(2,1,999)  0.3785135E-10                   1_GWF-(2,1,255)  0.5423267E-14
        203        22         1                  1_GWF-(2,1,1000)  0.2664001E-01                  1_GWF-(2,1,1000) -0.3469363E-06
        204        22         2                  1_GWF-(2,1,1000)  0.3431686E-05                  1_GWF-(2,1,1000)  0.7851017E-08
        205        22         3                  1_GWF-(2,1,1000) -0.5138781E-07                  1_GWF-(2,1,1000) -0.1270273E-09
        206        22         4                  1_GWF-(2,1,1000)  0.6528647E-09                   1_GWF-(2,1,253)  0.4078052E-12
        207        22         5                  1_GWF-(2,1,1000)  0.2815947E-12                   1_GWF-(2,1,295) -0.3949984E-13
        208        22         6                  1_GWF-(2,1,1000) -0.1004286E-12                  1_GWF-(2,1,1000) -0.1110113E-13
        209        22         7                  1_GWF-(2,1,1000) -0.2487804E-13                  1_GWF-(2,1,1000) -0.1616228E-13
        210        22         8                  1_GWF-(2,1,1000)  0.1194227E-12                  1_GWF-(2,1,1000)  0.1768508E-13
        211        22         9                   1_GWF-(2,1,999)  0.2321933E-12                  1_GWF-(2,1,1000)  0.1768565E-13
        212        23         1                  1_GWF-(2,1,1000)  0.1785068E-02                   1_GWF-(2,1,255)  0.1406223E-09
        213        23         2                  1_GWF-(2,1,1000)  0.1727752E-11                   1_GWF-(2,1,257) -0.2788589E-13
        214        23         3                   1_GWF-(2,1,999)  0.2308151E-11                   1_GWF-(2,1,259) -0.4168748E-16
        215        24         1                  1_GWF-(2,1,1000)  0.3512354E-02                   1_GWF-(2,1,749) -0.1750673E-08
        216        24         2                  1_GWF-(2,1,1000)  0.2388523E-10                   1_GWF-(2,1,255)  0.9733889E-13
        217        24         3                   1_GWF-(2,1,999) -0.6393955E-10                   1_GWF-(2,1,261) -0.2172224E-13
        218        24         4                   1_GWF-(2,1,999) -0.6523528E-11                   1_GWF-(2,1,261) -0.2126779E-13
        219        25         1                  1_GWF-(2,1,1000)  0.1853112E-01                  1_GWF-(2,1,1000) -0.2499744E-06
        220        25         2                  1_GWF-(2,1,1000) -0.7145320E-06                   1_GWF-(2,1,749) -0.2222552E-09
        221        25         3                  1_GWF-(2,1,1000)  0.1237729E-08                   1_GWF-(2,1,255)  0.3179589E-11
        222        25         4                  1_GWF-(2,1,1000) -0.1552532E-10                   1_GWF-(2,1,253)  0.3731383E-13
        223        25         5                  1_GWF-(2,1,1000)  0.4173779E-13                   1_GWF-(2,1,251) -0.4549793E-14
        224        25         6                   1_GWF-(2,1,999)  0.3378461E-11                  1_GWF-(2,1,1000) -0.2129257E-13
        225        26         1                  1_GWF-(2,1,1000)  0.2094287E-01                  1_GWF-(2,1,1000) -0.2119257E-06
        226        26         2                  1_GWF-(2,1,1000)  0.2308101E-05                  1_GWF-(2,1,1000)  0.1896307E-08
        227        26         3                  1_GWF-(2,1,1000) -0.2839958E-07                  1_GWF-(2,1,1000)  0.2989315E-10
        228        26         4                  1_GWF-(2,1,1000) -0.3332699E-09                   1_GWF-(2,1,253) -0.1087313E-12
        229        26         5                  1_GWF-(2,1,1000) -0.1124786E-11                   1_GWF-(2,1,251)  0.2160569E-13
        230        26         6                   1_GWF-(2,1,999)  0.1364507E-08                   1_GWF-(2,1,251)  0.2042699E-13
        231        27         1                  1_GWF-(2,1,1000)  0.2418881E-02                   1_GWF-(2,1,253)  0.2536894E-09
        232        27         2                  1_GWF-(2,1,1000)  0.5861334E-11                   1_GWF-(2,1,749) -0.1137383E-13
        233        27         3                   1_GWF-(2,1,999) -0.2955607E-12                   1_GWF-(2,1,251) -0.1470729E-14
        234        27         4                   1_GWF-(2,1,999)  0.4185563E-13                  1_GWF-(2,1,1000) -0.2842030E-13
        235        28         1                  1_GWF-(2,1,1000)  0.5255617E-02                   1_GWF-(2,1,249)  0.1613851E-08
        236        28         2                  1_GWF-(2,1,1000) -0.1639666E-08                   1_GWF-(2,1,251)  0.3560553E-12
        237        28         3                  1_GWF-(2,1,1000)  0.3026069E-12                   1_GWF-(2,1,251) -0.5376532E-13
        238        28         4                   1_GWF-(2,1,999)  0.2242094E-08                   1_GWF-(2,1,251) -0.4224119E-13
        239        28         5                  1_GWF-(2,1,1000)  0.1859589E-13                  1_GWF-(1,1,1000) -0.5925585E-15
        240        28         6                   1_GWF-(2,1,999) -0.5209776E-08                   1_GWF-(2,1,251) -0.2725720E-13
        241        28         7                  1_GWF-(2,1,1000)  0.1214770E-13                   1_GWF-(2,1,249)  0.2653993E-15
        242        28         8                   1_GWF-(2,1,999) -0.3939152E-09                   1_GWF-(2,1,251) -0.2141008E-14
        243        29         1                  1_GWF-(2,1,1000)  0.1786533E-01                  1_GWF-(2,1,1000) -0.1591977E-06
        244        29         2                  1_GWF-(2,1,1000) -0.7605494E-06                   1_GWF-(2,1,251) -0.4093526E-09
        245        29         3                  1_GWF-(2,1,1000)  0.2781888E-09                   1_GWF-(2,1,745)  0.1158517E-11
        246        29         4                  1_GWF-(2,1,1000) -0.1555237E-11                   1_GWF-(2,1,265)  0.3639261E-13
        247        29         5                  1_GWF-(2,1,1000) -0.3858415E-13                   1_GWF-(2,1,265) -0.1625418E-13
        248        29         6                   1_GWF-(2,1,999)  0.9577305E-10                   1_GWF-(2,1,265) -0.1104777E-13
        249        29         7                  1_GWF-(2,1,1000)  0.1468163E-13                  1_GWF-(2,1,1000)  0.3775443E-15
        250        29         8                   1_GWF-(2,1,999) -0.5231782E-10                  1_GWF-(1,1,1000) -0.8301332E-14
        251        29         9                   1_GWF-(2,1,999)  0.5667344E-10                  1_GWF-(2,1,1000)  0.7034470E-14
        252        29        10                  1_GWF-(2,1,1000) -0.5147792E-13                   1_GWF-(2,1,265) -0.3990472E-13
        253        29        11                  1_GWF-(2,1,1000)  0.5043491E-13                  1_GWF-(2,1,1000)  0.5971461E-14
        254        29        12                   1_GWF-(2,1,999)  0.4757358E-11                  1_GWF-(2,1,1000)  0.7203096E-14
        255        30         1                  1_GWF-(2,1,1000)  0.1968114E-01                  1_GWF-(2,1,1000) -0.3002464E-06
        256        30         2                  1_GWF-(2,1,1000) -0.1124229E-07                   1_GWF-(2,1,249) -0.7566165E-09
        257        30         3                  1_GWF-(2,1,1000)  0.5330647E-08                  1_GWF-(2,1,1000)  0.9446100E-11
        258        30         4                  1_GWF-(2,1,1000) -0.5213738E-10                  1_GWF-(2,1,1000) -0.2251354E-12
        259        30         5                  1_GWF-(2,1,1000)  0.2394430E-11                   1_GWF-(2,1,249) -0.1518422E-13
        260        30         6                   1_GWF-(2,1,999)  0.2398721E-11                   1_GWF-(2,1,249) -0.1501585E-13
        261        31         1                  1_GWF-(2,1,1000)  0.2933735E-02                   1_GWF-(2,1,249) -0.2322553E-08
        262        31         2                  1_GWF-(2,1,1000)  0.3247159E-10                   1_GWF-(2,1,247) -0.2313264E-12
        263        31         3                   1_GWF-(2,1,999)  0.3160909E-09                   1_GWF-(2,1,247) -0.1706823E-14
        264        31         4                   1_GWF-(2,1,999)  0.2434656E-12                  1_GWF-(2,1,1000) -0.2841922E-13
        265        32         1                  1_GWF-(2,1,1000)  0.3559856E-02                   1_GWF-(2,1,249) -0.1102420E-07
        266        32         2                  1_GWF-(2,1,1000)  0.2123343E-08                   1_GWF-(2,1,249)  0.8622065E-12
        267        32         3                  1_GWF-(2,1,1000) -0.8037903E-12                   1_GWF-(2,1,247)  0.2444907E-13
        268        32         4                   1_GWF-(2,1,999)  0.5130838E-10                  1_GWF-(1,1,1000) -0.5594828E-13
        269        33         1                  1_GWF-(2,1,1000)  0.1631223E-01                  1_GWF-(1,1,1000) -0.1044127E-06
        270        33         2                  1_GWF-(2,1,1000)  0.2372485E-06                  1_GWF-(1,1,1000)  0.1092135E-09
        271        33         3                  1_GWF-(2,1,1000) -0.1916812E-09                   1_GWF-(2,1,247)  0.2499987E-11
        272        33         4                  1_GWF-(2,1,1000) -0.7045557E-12                  1_GWF-(1,1,1000)  0.5052344E-13
        273        33         5                  1_GWF-(2,1,1000)  0.7494799E-13                   1_GWF-(2,1,247)  0.6912652E-14
        274        33         6                   1_GWF-(2,1,999)  0.9861390E-11                  1_GWF-(1,1,1000) -0.2126459E-13
        275        34         1                  1_GWF-(2,1,1000)  0.1829092E-01                  1_GWF-(1,1,1000) -0.1568315E-06
        276        34         2                  1_GWF-(2,1,1000) -0.5227011E-06                  1_GWF-(1,1,1000) -0.3307721E-09
        277        34         3                  1_GWF-(2,1,1000)  0.5560888E-08                  1_GWF-(1,1,1000) -0.7199166E-11
        278        34         4                  1_GWF-(2,1,1000)  0.6274232E-10                  1_GWF-(1,1,1000)  0.3742458E-13
        279        34         5                  1_GWF-(2,1,1000) -0.2508385E-12                  1_GWF-(1,1,1000) -0.1841983E-13
        280        34         6                   1_GWF-(2,1,999)  0.1845213E-10                  1_GWF-(1,1,1000) -0.4956479E-13
        281        35         1                  1_GWF-(2,1,1000)  0.1738066E-01                  1_GWF-(1,1,1000) -0.1107967E-06
        282        35         2                  1_GWF-(2,1,1000) -0.2194041E-06                   1_GWF-(2,1,245) -0.4365261E-09
        283        35         3                  1_GWF-(2,1,1000)  0.2064213E-08                  1_GWF-(1,1,1000)  0.6493716E-11
        284        35         4                  1_GWF-(2,1,1000) -0.4150045E-10                  1_GWF-(2,1,1000) -0.2772102E-12
        285        35         5                  1_GWF-(2,1,1000)  0.2143944E-11                   1_GWF-(2,1,245) -0.5956203E-14
        286        35         6                   1_GWF-(2,1,999)  0.3039910E-11                  1_GWF-(2,1,1000)  0.1419419E-13
        287        36         1                  1_GWF-(2,1,1000)  0.4229642E-02                   1_GWF-(2,1,245) -0.3754052E-08
        288        36         2                  1_GWF-(2,1,1000)  0.2021354E-09                   1_GWF-(2,1,243) -0.6091087E-12
        289        36         3                   1_GWF-(2,1,999)  0.2389411E-09                   1_GWF-(2,1,259)  0.6729265E-13
        290        36         4                  1_GWF-(2,1,1000) -0.1552049E-13                  1_GWF-(1,1,1000) -0.9561071E-14
        291        36         5                   1_GWF-(2,1,999) -0.1265675E-12                  1_GWF-(1,1,1000) -0.9559310E-14
        292        37         1                  1_GWF-(2,1,1000)  0.5315868E-02                   1_GWF-(2,1,739)  0.4584826E-08
        293        37         2                  1_GWF-(2,1,1000)  0.9130881E-09                   1_GWF-(2,1,243) -0.3251251E-11
        294        37         3                   1_GWF-(2,1,999) -0.6662107E-08                   1_GWF-(2,1,243)  0.6238455E-13
        295        37         4                  1_GWF-(2,1,1000) -0.1133241E-14                   1_GWF-(2,1,243) -0.9993501E-15
        296        37         5                   1_GWF-(2,1,999) -0.8277215E-14                   1_GWF-(2,1,243) -0.9999311E-15
        297        38         1                  1_GWF-(2,1,1000)  0.1586133E-01                  1_GWF-(1,1,1000) -0.1277937E-06
        298        38         2                  1_GWF-(2,1,1000) -0.3036050E-07                   1_GWF-(2,1,243) -0.1434137E-09
        299        38         3                  1_GWF-(2,1,1000) -0.9154444E-09                   1_GWF-(2,1,243) -0.2090226E-11
        300        38         4                  1_GWF-(2,1,1000)  0.1062676E-11                   1_GWF-(2,1,259) -0.3912214E-13
        301        38         5                  1_GWF-(2,1,1000)  0.1503671E-13                   1_GWF-(2,1,243) -0.7782884E-15
        302        38         6                   1_GWF-(2,1,999)  0.1445482E-12                  1_GWF-(1,1,1000)  0.1420961E-13
        303        39         1                  1_GWF-(2,1,1000)  0.1655738E-01                  1_GWF-(1,1,1000) -0.4323536E-07
        304        39         2                  1_GWF-(2,1,1000)  0.4427646E-06                   1_GWF-(2,1,243) -0.5442479E-09
        305        39         3                  1_GWF-(2,1,1000)  0.4990447E-09                   1_GWF-(2,1,257) -0.9121639E-11
        306        39         4                  1_GWF-(2,1,1000)  0.1399749E-10                   1_GWF-(2,1,259)  0.4503569E-13
        307        39         5                   1_GWF-(2,1,999)  0.1775755E-09                   1_GWF-(2,1,253)  0.3808870E-14
        308        39         6                   1_GWF-(2,1,999)  0.3224777E-11                  1_GWF-(2,1,1000) -0.3546489E-13
        309        40         1                  1_GWF-(2,1,1000)  0.1346165E-02                   1_GWF-(2,1,739)  0.3732380E-09
        310        40         2                  1_GWF-(2,1,1000)  0.9329391E-12                   1_GWF-(2,1,243)  0.4812890E-14
        311        40         3                   1_GWF-(2,1,999) -0.7207895E-12                   1_GWF-(2,1,243)  0.8704661E-16
        312        40         4                   1_GWF-(2,1,913) -0.3482745E-13                  1_GWF-(1,1,1000)  0.2842171E-13
        313        41         1                  1_GWF-(2,1,1000)  0.3542662E-02                   1_GWF-(2,1,239) -0.3160551E-08
        314        41         2                  1_GWF-(2,1,1000)  0.2936935E-09                   1_GWF-(2,1,241)  0.2227769E-10
        315        41         3                  1_GWF-(2,1,1000)  0.1706278E-11                   1_GWF-(2,1,239)  0.3382296E-13
        316        41         4                   1_GWF-(2,1,999) -0.3402832E-10                   1_GWF-(2,1,239)  0.3288477E-13
        317        42         1                  1_GWF-(2,1,1000)  0.1267593E-01                   1_GWF-(2,1,241) -0.1757078E-07
        318        42         2                  1_GWF-(2,1,1000) -0.1729964E-06                   1_GWF-(2,1,241) -0.5831010E-10
        319        42         3                  1_GWF-(2,1,1000) -0.3794371E-09                   1_GWF-(2,1,241)  0.1313387E-10
        320        42         4                  1_GWF-(2,1,1000)  0.2023640E-10                  1_GWF-(1,1,1000)  0.1022329E-12
        321        42         5                  1_GWF-(2,1,1000) -0.1662326E-13                  1_GWF-(1,1,1000) -0.3758046E-14
        322        42         6                   1_GWF-(2,1,999)  0.1029649E-09                  1_GWF-(1,1,1000)  0.1350216E-13
        323        43         1                  1_GWF-(2,1,1000)  0.1913402E-01                  1_GWF-(1,1,1000) -0.2234073E-06
        324        43         2                  1_GWF-(2,1,1000) -0.8664673E-07                   1_GWF-(2,1,239) -0.2674228E-09
        325        43         3                  1_GWF-(2,1,1000) -0.2641941E-08                   1_GWF-(2,1,239) -0.5598454E-11
        326        43         4                  1_GWF-(2,1,1000)  0.1311812E-10                   1_GWF-(2,1,239)  0.2109479E-12
        327        43         5                  1_GWF-(2,1,1000)  0.2540676E-12                  1_GWF-(1,1,1000)  0.8061573E-14
        328        43         6                   1_GWF-(2,1,999)  0.4605731E-13                  1_GWF-(1,1,1000)  0.3548771E-13
        329        44         1                  1_GWF-(2,1,1000)  0.1352110E-01                   1_GWF-(2,1,237) -0.3484760E-07
        330        44         2                  1_GWF-(2,1,1000)  0.3753383E-06                   1_GWF-(2,1,255)  0.1304759E-09
        331        44         3                  1_GWF-(2,1,1000) -0.1052354E-08                   1_GWF-(2,1,733)  0.2024187E-11
        332        44         4                  1_GWF-(2,1,1000) -0.2067244E-10                   1_GWF-(2,1,249)  0.2962754E-13
        333        44         5                  1_GWF-(2,1,1000) -0.1278411E-12                   1_GWF-(2,1,247) -0.4061954E-14
        334        44         6                   1_GWF-(2,1,999) -0.3468857E-09                  1_GWF-(2,1,1000)  0.7394796E-14
        335        45         1                  1_GWF-(2,1,1000)  0.2191479E-02                   1_GWF-(2,1,239)  0.6572311E-09
        336        45         2                  1_GWF-(2,1,1000)  0.4384951E-11                   1_GWF-(2,1,241)  0.4654203E-13
        337        45         3                   1_GWF-(2,1,999) -0.2029064E-10                   1_GWF-(2,1,237)  0.5286901E-14
        338        45         4                   1_GWF-(2,1,999) -0.5385188E-12                  1_GWF-(1,1,1000)  0.2840004E-13
        339        46         1                  1_GWF-(2,1,1000)  0.4394936E-02                   1_GWF-(2,1,239) -0.1340783E-08
        340        46         2                  1_GWF-(2,1,1000)  0.7393792E-09                   1_GWF-(2,1,237) -0.7783721E-12
        341        46         3                  1_GWF-(2,1,1000) -0.3124343E-12                   1_GWF-(2,1,237)  0.1279375E-12
        342        46         4                  1_GWF-(2,1,1000)  0.3438628E-13                  1_GWF-(1,1,1000)  0.4225062E-14
        343        46         5                   1_GWF-(2,1,999)  0.5217046E-13                  1_GWF-(1,1,1000)  0.4224999E-14
        344        47         1                  1_GWF-(2,1,1000)  0.1476459E-01                  1_GWF-(1,1,1000) -0.5126538E-07
        345        47         2                  1_GWF-(2,1,1000)  0.1260477E-07                   1_GWF-(2,1,237) -0.1462979E-09
        346        47         3                   1_GWF-(2,1,999)  0.7128327E-05                   1_GWF-(2,1,253)  0.1748359E-10
        347        47         4                  1_GWF-(2,1,1000) -0.3952845E-12                  1_GWF-(2,1,1000)  0.3846718E-12
        348        47         5                  1_GWF-(2,1,1000)  0.3181545E-12                  1_GWF-(2,1,1000) -0.1135405E-12
        349        47         6                   1_GWF-(2,1,999)  0.1542819E-11                  1_GWF-(2,1,1000) -0.1348298E-12
        350        48         1                  1_GWF-(2,1,1000)  0.1636064E-01                  1_GWF-(1,1,1000) -0.1846095E-06
        351        48         2                  1_GWF-(2,1,1000) -0.1096578E-06                  1_GWF-(1,1,1000)  0.1496615E-09
        352        48         3                  1_GWF-(2,1,1000) -0.3595492E-09                  1_GWF-(1,1,1000)  0.1481178E-11
        353        48         4                  1_GWF-(2,1,1000) -0.4635573E-11                  1_GWF-(1,1,1000) -0.3386347E-13
        354        48         5                  1_GWF-(2,1,1000)  0.7712317E-13                   1_GWF-(2,1,235) -0.8089789E-14
        355        48         6                   1_GWF-(2,1,999)  0.3571852E-11                  1_GWF-(1,1,1000) -0.2833443E-13
        356        49         1                  1_GWF-(2,1,1000)  0.1614867E-01                  1_GWF-(1,1,1000) -0.1313243E-06
        357        49         2                  1_GWF-(2,1,1000) -0.9470010E-07                   1_GWF-(2,1,235) -0.1511906E-09
        358        49         3                  1_GWF-(2,1,1000) -0.4072118E-09                   1_GWF-(2,1,235) -0.2081128E-11
        359        49         4                  1_GWF-(2,1,1000)  0.3080591E-11                   1_GWF-(2,1,251) -0.4485778E-13
        360        49         5                  1_GWF-(2,1,1000) -0.4531811E-13                   1_GWF-(2,1,259) -0.3947242E-15
        361        49         6                   1_GWF-(2,1,999)  0.2666010E-12                  1_GWF-(2,1,1000) -0.1421060E-13
        362        50         1                  1_GWF-(2,1,1000)  0.1757513E-01                   1_GWF-(2,1,233) -0.5014218E-07
        363        50         2                  1_GWF-(2,1,1000)  0.1913355E-05                   1_GWF-(2,1,251)  0.3052812E-09
        364        50         3                  1_GWF-(2,1,1000) -0.2702147E-08                   1_GWF-(2,1,729)  0.6096516E-11
        365        50         4                  1_GWF-(2,1,1000) -0.6929313E-10                   1_GWF-(2,1,235) -0.8874292E-13
        366        50         5                  1_GWF-(2,1,1000) -0.4084758E-12                   1_GWF-(2,1,245) -0.4080220E-14
        367        50         6                   1_GWF-(2,1,998)  0.1991219E-12                  1_GWF-(1,1,1000)  0.2128864E-13
        368        51         1                  1_GWF-(2,1,1000)  0.2908174E-02                   1_GWF-(2,1,729)  0.1641634E-08
        369        51         2                  1_GWF-(2,1,1000) -0.1826555E-10                   1_GWF-(2,1,239)  0.3383633E-12
        370        51         3                   1_GWF-(2,1,999) -0.8730568E-12                   1_GWF-(2,1,233)  0.3997856E-13
        371        51         4                   1_GWF-(2,1,999) -0.1516856E-10                   1_GWF-(2,1,233)  0.3712929E-13
        372        52         1                  1_GWF-(2,1,1000)  0.5514645E-02                   1_GWF-(2,1,235) -0.2195941E-08
        373        52         2                  1_GWF-(2,1,1000)  0.3158880E-08                   1_GWF-(2,1,233) -0.2831323E-11
        374        52         3                  1_GWF-(2,1,1000) -0.1287233E-11                   1_GWF-(2,1,239)  0.7621342E-13
        375        52         4                   1_GWF-(2,1,999) -0.5225478E-09                   1_GWF-(2,1,237) -0.3699985E-14
        376        52         5                   1_GWF-(2,1,999) -0.9933718E-13                   1_GWF-(2,1,237) -0.3702952E-14
        377        53         1                  1_GWF-(2,1,1000)  0.1496258E-01                  1_GWF-(1,1,1000) -0.5495728E-07
        378        53         2                  1_GWF-(2,1,1000)  0.2483926E-06                   1_GWF-(2,1,233) -0.1206354E-09
        379        53         3                  1_GWF-(2,1,1000)  0.1915767E-09                   1_GWF-(2,1,249)  0.4610999E-10
        380        53         4                  1_GWF-(2,1,1000) -0.5189434E-10                   1_GWF-(2,1,247)  0.4433644E-13
        381        53         5                  1_GWF-(2,1,1000) -0.8459068E-14                   1_GWF-(2,1,249) -0.1274735E-14
        382        53         6                   1_GWF-(2,1,999) -0.5271050E-12                  1_GWF-(2,1,1000)  0.2841588E-13
        383        54         1                  1_GWF-(2,1,1000)  0.1631072E-01                  1_GWF-(1,1,1000) -0.2044826E-06
        384        54         2                  1_GWF-(2,1,1000) -0.5745033E-07                   1_GWF-(2,1,233) -0.1305883E-09
        385        54         3                  1_GWF-(2,1,1000)  0.5543396E-09                   1_GWF-(2,1,231) -0.1058472E-11
        386        54         4                  1_GWF-(2,1,1000) -0.1987381E-12                   1_GWF-(2,1,243)  0.3441511E-13
        387        54         5                   1_GWF-(2,1,999) -0.1016459E-08                   1_GWF-(2,1,249) -0.9299028E-14
        388        54         6                   1_GWF-(2,1,999) -0.6140085E-12                  1_GWF-(1,1,1000)  0.1413794E-13
        389        55         1                  1_GWF-(2,1,1000)  0.1624843E-01                   1_GWF-(2,1,231) -0.7322098E-07
        390        55         2                  1_GWF-(2,1,1000)  0.1532275E-05                   1_GWF-(2,1,231)  0.4338904E-08
        391        55         3                  1_GWF-(2,1,1000) -0.6065942E-08                   1_GWF-(2,1,231) -0.6250829E-10
        392        55         4                  1_GWF-(2,1,1000)  0.1661537E-09                   1_GWF-(2,1,237)  0.5586123E-13
        393        55         5                  1_GWF-(2,1,1000)  0.1014635E-12                   1_GWF-(2,1,239)  0.9435006E-14
        394        55         6                   1_GWF-(2,1,999)  0.6220783E-10                  1_GWF-(2,1,1000)  0.1408454E-13
        395        56         1                  1_GWF-(2,1,1000)  0.2490009E-02                   1_GWF-(2,1,725) -0.4092143E-09
        396        56         2                  1_GWF-(2,1,1000)  0.4856510E-11                   1_GWF-(2,1,725) -0.3477728E-13
        397        56         3                   1_GWF-(2,1,999)  0.1103863E-11                   1_GWF-(2,1,229) -0.6666385E-14
        398        56         4                   1_GWF-(2,1,999)  0.1244182E-11                  1_GWF-(2,1,1000)  0.2839137E-13
        399        57         1                  1_GWF-(2,1,1000)  0.5318292E-02                   1_GWF-(2,1,231) -0.7709568E-08
        400        57         2                  1_GWF-(2,1,1000)  0.1324776E-07                  1_GWF-(1,1,1000)  0.3071951E-11
        401        57         3                  1_GWF-(2,1,1000) -0.1352053E-10                   1_GWF-(2,1,229)  0.1491737E-12
        402        57         4                  1_GWF-(2,1,1000)  0.3460299E-12                   1_GWF-(2,1,229) -0.9049575E-14
        403        57         5                   1_GWF-(2,1,999)  0.6300183E-11                   1_GWF-(2,1,229) -0.9062249E-14
        404        58         1                  1_GWF-(2,1,1000)  0.1461649E-01                  1_GWF-(1,1,1000) -0.6092210E-07
        405        58         2                  1_GWF-(2,1,1000)  0.2677292E-06                  1_GWF-(1,1,1000)  0.1075798E-09
        406        58         3                  1_GWF-(2,1,1000) -0.6898939E-09                   1_GWF-(2,1,229)  0.7166526E-12
        407        58         4                  1_GWF-(2,1,1000) -0.2787743E-11                   1_GWF-(2,1,229) -0.1091421E-12
        408        58         5                  1_GWF-(2,1,1000)  0.4657064E-13                  1_GWF-(2,1,1000)  0.6224994E-14
        409        58         6                   1_GWF-(2,1,999) -0.7868502E-11                  1_GWF-(2,1,1000)  0.1417073E-13
        410        59         1                  1_GWF-(2,1,1000)  0.1621924E-01                  1_GWF-(1,1,1000) -0.5773248E-07
        411        59         2                  1_GWF-(2,1,1000)  0.4634550E-06                  1_GWF-(1,1,1000) -0.3976385E-09
        412        59         3                  1_GWF-(2,1,1000)  0.4494776E-09                  1_GWF-(1,1,1000)  0.6021762E-10
        413        59         4                  1_GWF-(2,1,1000) -0.1198408E-09                  1_GWF-(1,1,1000) -0.5409439E-12
        414        59         5                  1_GWF-(2,1,1000)  0.1398252E-11                  1_GWF-(1,1,1000)  0.9716181E-14
        415        59         6                  1_GWF-(2,1,1000) -0.3274132E-14                  1_GWF-(2,1,1000) -0.4321482E-13
        416        60         1                  1_GWF-(2,1,1000)  0.1596866E-01                  1_GWF-(1,1,1000) -0.7924425E-07
        417        60         2                  1_GWF-(2,1,1000)  0.6763187E-07                   1_GWF-(2,1,227) -0.3877729E-09
        418        60         3                  1_GWF-(2,1,1000)  0.1629952E-08                   1_GWF-(2,1,227) -0.5218189E-11
        419        60         4                  1_GWF-(2,1,1000) -0.1344120E-10                  1_GWF-(2,1,1000) -0.6171597E-13
        420        60         5                  1_GWF-(2,1,1000)  0.3063410E-12                  1_GWF-(2,1,1000)  0.1924340E-14
        421        60         6                   1_GWF-(2,1,999) -0.9093568E-13                  1_GWF-(1,1,1000)  0.2131539E-13
        422        61         1                  1_GWF-(2,1,1000)  0.2472992E-02                   1_GWF-(2,1,721) -0.2963213E-09
        423        61         2                  1_GWF-(2,1,1000)  0.3405986E-11                   1_GWF-(2,1,243)  0.1299794E-13
        424        61         3                   1_GWF-(2,1,999) -0.1763099E-11                   1_GWF-(2,1,229) -0.5630921E-15
        425        61         4                   1_GWF-(2,1,999) -0.2008225E-13                  1_GWF-(2,1,1000) -0.2842136E-13
        426        62         1                  1_GWF-(2,1,1000)  0.5321525E-02                   1_GWF-(2,1,721)  0.3567337E-08
        427        62         2                  1_GWF-(2,1,1000)  0.2877498E-08                   1_GWF-(2,1,225) -0.3112239E-11
        428        62         3                  1_GWF-(2,1,1000) -0.8720145E-12                   1_GWF-(2,1,225)  0.6876100E-13
        429        62         4                  1_GWF-(2,1,1000)  0.4028112E-14                   1_GWF-(2,1,225)  0.3339174E-14
        430        62         5                   1_GWF-(2,1,999)  0.1509036E-12                   1_GWF-(2,1,225)  0.3336808E-14
        431        63         1                  1_GWF-(2,1,1000)  0.1458146E-01                  1_GWF-(1,1,1000) -0.8128888E-07
        432        63         2                  1_GWF-(2,1,1000)  0.5357078E-07                   1_GWF-(2,1,225) -0.1260792E-09
        433        63         3                  1_GWF-(2,1,1000) -0.1282401E-09                   1_GWF-(2,1,225) -0.2100501E-11
        434        63         4                  1_GWF-(2,1,1000)  0.1975569E-11                   1_GWF-(2,1,225) -0.8677701E-13
        435        63         5                  1_GWF-(2,1,1000) -0.8783078E-13                  1_GWF-(1,1,1000) -0.1744548E-14
        436        63         6                   1_GWF-(2,1,999)  0.2079056E-11                  1_GWF-(2,1,1000)  0.2131243E-13
        437        64         1                  1_GWF-(2,1,1000)  0.1609459E-01                  1_GWF-(1,1,1000) -0.1472193E-06
        438        64         2                  1_GWF-(2,1,1000)  0.2882441E-07                  1_GWF-(1,1,1000)  0.1227846E-09
        439        64         3                  1_GWF-(2,1,1000)  0.2022854E-08                   1_GWF-(2,1,227)  0.2527535E-11
        440        64         4                  1_GWF-(2,1,1000) -0.4771195E-10                   1_GWF-(2,1,225)  0.8016711E-13
        441        64         5                  1_GWF-(2,1,1000) -0.1240732E-12                  1_GWF-(2,1,1000)  0.1427394E-13
        442        64         6                   1_GWF-(2,1,999) -0.7518297E-12                  1_GWF-(1,1,1000)  0.3550845E-13
        443        65         1                  1_GWF-(2,1,1000)  0.1595049E-01                  1_GWF-(1,1,1000) -0.4912892E-07
        444        65         2                  1_GWF-(2,1,1000)  0.8972513E-06                  1_GWF-(1,1,1000)  0.8218339E-09
        445        65         3                  1_GWF-(2,1,1000) -0.2603052E-08                   1_GWF-(2,1,719)  0.3271276E-11
        446        65         4                  1_GWF-(2,1,1000)  0.1988508E-11                   1_GWF-(2,1,239) -0.4573079E-13
        447        65         5                  1_GWF-(2,1,1000) -0.7284536E-13                   1_GWF-(2,1,223) -0.1924870E-14
        448        65         6                   1_GWF-(2,1,999) -0.3190344E-12                  1_GWF-(2,1,1000) -0.1420691E-13
        449        66         1                  1_GWF-(2,1,1000)  0.2858258E-02                   1_GWF-(2,1,225) -0.1019207E-07
        450        66         2                  1_GWF-(2,1,1000)  0.1001999E-07                  1_GWF-(1,1,1000)  0.6232687E-12
        451        66         3                  1_GWF-(2,1,1000) -0.8984987E-12                   1_GWF-(2,1,227) -0.3736986E-13
        452        66         4                   1_GWF-(2,1,999) -0.5281803E-10                   1_GWF-(2,1,227) -0.3533946E-13
        453        67         1                  1_GWF-(2,1,1000)  0.5215391E-02                   1_GWF-(2,1,223) -0.9224171E-08
        454        67         2                  1_GWF-(2,1,1000) -0.2562188E-09                   1_GWF-(2,1,227) -0.4714623E-11
        455        67         3                  1_GWF-(2,1,1000)  0.6210047E-12                   1_GWF-(2,1,223)  0.5558490E-13
        456        67         4                   1_GWF-(2,1,999)  0.1335759E-08                  1_GWF-(1,1,1000)  0.1251635E-13
        457        67         5                   1_GWF-(2,1,984) -0.1416941E-13                  1_GWF-(1,1,1000)  0.1251629E-13
        458        68         1                  1_GWF-(2,1,1000)  0.1446942E-01                  1_GWF-(1,1,1000) -0.8412430E-07
        459        68         2                  1_GWF-(2,1,1000) -0.1701121E-06                  1_GWF-(1,1,1000)  0.7805384E-10
        460        68         3                  1_GWF-(2,1,1000) -0.1360244E-09                   1_GWF-(2,1,223) -0.5287454E-12
        461        68         4                  1_GWF-(2,1,1000) -0.1027159E-11                   1_GWF-(2,1,233)  0.4408595E-13
        462        68         5                   1_GWF-(2,1,999) -0.1402099E-09                   1_GWF-(2,1,237) -0.2522780E-14
        463        68         6                   1_GWF-(2,1,999) -0.5795068E-12                  1_GWF-(1,1,1000) -0.3549728E-13
        464        69         1                  1_GWF-(2,1,1000)  0.1572751E-01                  1_GWF-(1,1,1000) -0.1323979E-06
        465        69         2                  1_GWF-(2,1,1000)  0.7815327E-08                   1_GWF-(2,1,221) -0.1039765E-09
        466        69         3                  1_GWF-(2,1,1000)  0.4291400E-10                   1_GWF-(2,1,221)  0.7697700E-12
        467        69         4                  1_GWF-(2,1,1000)  0.6800975E-12                   1_GWF-(2,1,241)  0.2620228E-13
        468        69         5                  1_GWF-(2,1,1000)  0.5674575E-14                  1_GWF-(1,1,1000) -0.1083457E-14
        469        69         6                   1_GWF-(2,1,999)  0.4975934E-14                  1_GWF-(2,1,1000) -0.7105307E-14
        470        70         1                  1_GWF-(2,1,1000)  0.1580195E-01                   1_GWF-(2,1,219) -0.4116098E-07
        471        70         2                  1_GWF-(2,1,1000)  0.1547238E-05                   1_GWF-(2,1,237)  0.2018865E-09
        472        70         3                  1_GWF-(2,1,1000) -0.1429750E-08                   1_GWF-(2,1,221) -0.3247505E-11
        473        70         4                  1_GWF-(2,1,1000) -0.2870378E-10                   1_GWF-(2,1,221) -0.1008799E-12
        474        70         5                  1_GWF-(2,1,1000) -0.3810844E-12                   1_GWF-(2,1,231) -0.5528681E-14
        475        70         6                   1_GWF-(2,1,999) -0.5927220E-11                  1_GWF-(2,1,1000)  0.1417012E-13
        476        71         1                  1_GWF-(2,1,1000)  0.3200343E-02                   1_GWF-(2,1,221)  0.2199150E-08
        477        71         2                  1_GWF-(2,1,1000) -0.6111344E-10                   1_GWF-(2,1,227)  0.7186227E-12
        478        71         3                   1_GWF-(2,1,999)  0.1089970E-09                   1_GWF-(2,1,219)  0.7595120E-13
        479        71         4                   1_GWF-(2,1,999)  0.1581966E-09                   1_GWF-(2,1,219)  0.4563177E-13
        480        72         1                  1_GWF-(2,1,1000)  0.5132487E-02                   1_GWF-(2,1,221) -0.1869610E-08
        481        72         2                  1_GWF-(2,1,1000)  0.3028648E-08                   1_GWF-(2,1,219) -0.1829216E-11
        482        72         3                  1_GWF-(2,1,1000) -0.1940451E-11                   1_GWF-(2,1,233)  0.7176571E-13
        483        72         4                  1_GWF-(2,1,1000) -0.8328725E-13                   1_GWF-(2,1,231) -0.5743868E-14
        484        72         5                   1_GWF-(2,1,999) -0.3338072E-10                   1_GWF-(2,1,231) -0.5809630E-14
        485        73         1                  1_GWF-(2,1,1000)  0.1427169E-01                  1_GWF-(1,1,1000) -0.6128469E-07
        486        73         2                  1_GWF-(2,1,1000)  0.2412537E-06                  1_GWF-(1,1,1000) -0.1584882E-09
        487        73         3                  1_GWF-(2,1,1000)  0.5155895E-09                  1_GWF-(1,1,1000) -0.3112001E-11
        488        73         4                  1_GWF-(2,1,1000)  0.1138643E-10                   1_GWF-(2,1,235)  0.5770450E-13
        489        73         5                  1_GWF-(2,1,1000)  0.1549737E-12                  1_GWF-(2,1,1000)  0.1425505E-13
        490        73         6                   1_GWF-(2,1,999)  0.2307252E-11                  1_GWF-(2,1,1000)  0.2118604E-13
        491        74         1                  1_GWF-(2,1,1000)  0.1527951E-01                  1_GWF-(1,1,1000) -0.1975767E-06
        492        74         2                  1_GWF-(2,1,1000) -0.1301379E-06                   1_GWF-(2,1,217) -0.1656127E-09
        493        74         3                  1_GWF-(2,1,1000)  0.9274835E-09                   1_GWF-(2,1,217) -0.1067703E-11
        494        74         4                  1_GWF-(2,1,1000) -0.1549823E-11                   1_GWF-(2,1,217)  0.1046602E-12
        495        74         5                  1_GWF-(2,1,1000)  0.8222951E-13                   1_GWF-(2,1,391) -0.5405151E-14
        496        74         6                   1_GWF-(2,1,999) -0.1254907E-10                  1_GWF-(2,1,1000) -0.1395866E-13
        497        75         1                  1_GWF-(2,1,1000)  0.1552271E-01                   1_GWF-(2,1,217) -0.6686925E-07
        498        75         2                  1_GWF-(2,1,1000)  0.1500916E-05                  1_GWF-(1,1,1000)  0.2491655E-09
        499        75         3                  1_GWF-(2,1,1000) -0.1174663E-07                  1_GWF-(1,1,1000)  0.4235803E-11
        500        75         4                  1_GWF-(2,1,1000) -0.1622665E-09                   1_GWF-(2,1,215) -0.8749616E-13
        501        75         5                  1_GWF-(2,1,1000) -0.1743359E-11                   1_GWF-(2,1,217) -0.1207406E-13
        502        75         6                   1_GWF-(2,1,999)  0.1701276E-09                  1_GWF-(2,1,1000)  0.2103334E-13
        503        76         1                  1_GWF-(2,1,1000)  0.3422268E-02                   1_GWF-(2,1,217) -0.3174272E-08
        504        76         2                  1_GWF-(2,1,1000)  0.6438650E-10                   1_GWF-(2,1,221) -0.6064180E-12
        505        76         3                   1_GWF-(2,1,999) -0.2898576E-09                   1_GWF-(2,1,215) -0.6436355E-13
        506        76         4                   1_GWF-(2,1,999) -0.5509268E-09                   1_GWF-(2,1,215) -0.4194607E-13
        507        77         1                  1_GWF-(2,1,1000)  0.4697257E-02                   1_GWF-(2,1,217) -0.8126206E-08
        508        77         2                  1_GWF-(2,1,1000)  0.1022263E-07                  1_GWF-(1,1,1000)  0.2668831E-11
        509        77         3                  1_GWF-(2,1,1000) -0.9882627E-11                   1_GWF-(2,1,215)  0.6898764E-13
        510        77         4                   1_GWF-(2,1,999) -0.4121165E-08                   1_GWF-(2,1,215)  0.7585752E-13
        511        78         1                  1_GWF-(2,1,1000)  0.1380427E-01                  1_GWF-(1,1,1000) -0.6703098E-07
        512        78         2                  1_GWF-(2,1,1000)  0.2299856E-06                  1_GWF-(1,1,1000)  0.6950898E-10
        513        78         3                  1_GWF-(2,1,1000) -0.2753787E-09                   1_GWF-(2,1,215)  0.6273771E-12
        514        78         4                  1_GWF-(2,1,1000) -0.2222481E-11                   1_GWF-(2,1,215) -0.1138379E-12
        515        78         5                  1_GWF-(2,1,1000)  0.2308302E-12                   1_GWF-(2,1,213)  0.3942272E-14
        516        78         6                   1_GWF-(2,1,999)  0.1866492E-10                  1_GWF-(1,1,1000) -0.2128787E-13
        517        79         1                  1_GWF-(2,1,1000)  0.1470736E-01                  1_GWF-(1,1,1000) -0.5321257E-07
        518        79         2                  1_GWF-(2,1,1000)  0.2403438E-06                  1_GWF-(1,1,1000) -0.2979146E-09
        519        79         3                  1_GWF-(2,1,1000)  0.7496098E-09                  1_GWF-(1,1,1000) -0.5630127E-10
        520        79         4                  1_GWF-(2,1,1000)  0.2014907E-09                  1_GWF-(1,1,1000) -0.4000921E-12
        521        79         5                  1_GWF-(2,1,1000)  0.1685744E-11                  1_GWF-(1,1,1000)  0.4127995E-13
        522        79         6                   1_GWF-(2,1,999) -0.1165915E-10                  1_GWF-(1,1,1000)  0.7086900E-13
        523        80         1                  1_GWF-(2,1,1000)  0.1497497E-01                  1_GWF-(1,1,1000) -0.7164108E-07
        524        80         2                  1_GWF-(2,1,1000)  0.1406192E-06                   1_GWF-(2,1,213) -0.2941531E-09
        525        80         3                  1_GWF-(2,1,1000)  0.1040619E-08                  1_GWF-(1,1,1000)  0.2230118E-11
        526        80         4                  1_GWF-(2,1,1000) -0.1076489E-10                  1_GWF-(2,1,1000) -0.5745462E-13
        527        80         5                  1_GWF-(2,1,1000)  0.3268086E-12                   1_GWF-(2,1,213) -0.1854374E-14
        528        80         6                   1_GWF-(2,1,999)  0.9506372E-12                  1_GWF-(2,1,1000) -0.4262532E-13
        529        81         1                  1_GWF-(2,1,1000)  0.3387758E-02                   1_GWF-(2,1,213) -0.2052834E-08
        530        81         2                  1_GWF-(2,1,1000)  0.1056737E-09                   1_GWF-(2,1,211) -0.2527264E-12
        531        81         3                   1_GWF-(2,1,999) -0.4321496E-09                   1_GWF-(2,1,225)  0.1511437E-13
        532        81         4                   1_GWF-(2,1,999)  0.1989045E-11                  1_GWF-(2,1,1000)  0.2796202E-13
        533        82         1                  1_GWF-(2,1,1000)  0.4594902E-02                   1_GWF-(2,1,707)  0.3598458E-08
        534        82         2                  1_GWF-(2,1,1000)  0.7826565E-09                   1_GWF-(2,1,211) -0.2295495E-11
        535        82         3                   1_GWF-(2,1,999) -0.1832468E-09                   1_GWF-(2,1,211)  0.8337297E-13
        536        82         4                  1_GWF-(2,1,1000)  0.1626415E-14                   1_GWF-(2,1,211) -0.1036284E-14
        537        82         5                   1_GWF-(2,1,999) -0.3017232E-13                   1_GWF-(2,1,211) -0.1037722E-14
        538        83         1                  1_GWF-(2,1,1000)  0.1339239E-01                  1_GWF-(1,1,1000) -0.7550085E-07
        539        83         2                  1_GWF-(2,1,1000)  0.2911592E-07                   1_GWF-(2,1,211) -0.8093189E-10
        540        83         3                  1_GWF-(2,1,1000) -0.2281028E-09                   1_GWF-(2,1,211) -0.1028870E-11
        541        83         4                  1_GWF-(2,1,1000)  0.8742163E-12                   1_GWF-(2,1,211) -0.8748125E-13
        542        83         5                  1_GWF-(2,1,1000) -0.5564954E-13                  1_GWF-(2,1,1000) -0.1095526E-14
        543        83         6                   1_GWF-(2,1,999) -0.1625395E-10                  1_GWF-(2,1,1000)  0.1421684E-13
        544        84         1                  1_GWF-(2,1,1000)  0.1419469E-01                  1_GWF-(1,1,1000) -0.1081443E-06
        545        84         2                  1_GWF-(2,1,1000) -0.6096953E-07                  1_GWF-(1,1,1000)  0.8144140E-10
        546        84         3                  1_GWF-(2,1,1000)  0.1392001E-08                   1_GWF-(2,1,209)  0.1777647E-11
        547        84         4                  1_GWF-(2,1,1000) -0.3166504E-10                  1_GWF-(2,1,1000) -0.1104464E-12
        548        84         5                  1_GWF-(2,1,1000)  0.3178374E-12                  1_GWF-(2,1,1000)  0.2638799E-13
        549        84         6                   1_GWF-(2,1,999) -0.2364615E-10                  1_GWF-(1,1,1000)  0.2089990E-13
        550        85         1                  1_GWF-(2,1,1000)  0.1448333E-01                   1_GWF-(2,1,705) -0.8027810E-07
        551        85         2                  1_GWF-(2,1,1000)  0.8881152E-06                   1_GWF-(2,1,705) -0.2065793E-09
        552        85         3                  1_GWF-(2,1,1000) -0.4071608E-09                   1_GWF-(2,1,209)  0.1117156E-11
        553        85         4                  1_GWF-(2,1,1000)  0.6335446E-12                   1_GWF-(2,1,221)  0.5675828E-13
        554        85         5                  1_GWF-(2,1,1000) -0.1910612E-13                   1_GWF-(2,1,219) -0.1003663E-13
        555        85         6                   1_GWF-(2,1,999)  0.1395802E-10                  1_GWF-(2,1,1000) -0.2112940E-13
        556        86         1                  1_GWF-(2,1,1000)  0.3377369E-02                  1_GWF-(2,1,1000) -0.7628503E-08
        557        86         2                  1_GWF-(2,1,1000)  0.1309140E-07                   1_GWF-(2,1,215) -0.7500496E-12
        558        86         3                  1_GWF-(2,1,1000) -0.4334105E-12                   1_GWF-(2,1,213) -0.5564598E-13
        559        86         4                   1_GWF-(2,1,999) -0.9727470E-10                   1_GWF-(2,1,213) -0.5354779E-13
        560        87         1                  1_GWF-(2,1,1000)  0.4494402E-02                   1_GWF-(2,1,209) -0.4844139E-08
        561        87         2                  1_GWF-(2,1,1000) -0.1653417E-08                   1_GWF-(2,1,208)  0.9548563E-12
        562        87         3                  1_GWF-(2,1,1000) -0.4504616E-12                   1_GWF-(2,1,209) -0.4375481E-13
        563        87         4                   1_GWF-(2,1,999)  0.2628972E-10                   1_GWF-(2,1,209) -0.4182131E-13
        564        88         1                  1_GWF-(2,1,1000)  0.1299577E-01                  1_GWF-(1,1,1000) -0.6508408E-07
        565        88         2                  1_GWF-(2,1,1000) -0.1241784E-06                   1_GWF-(2,1,227)  0.5191754E-10
        566        88         3                  1_GWF-(2,1,1000) -0.7777637E-10                   1_GWF-(2,1,207)  0.3383825E-12
        567        88         4                  1_GWF-(2,1,1000) -0.8371846E-12                   1_GWF-(2,1,213)  0.6282365E-13
        568        88         5                   1_GWF-(2,1,999) -0.3156494E-09                   1_GWF-(2,1,207) -0.1478974E-13
[...]
          551         552         553         554         555         556         557         558         559         560
          561         562         563         564         565         566         567         568         569         570
          571         572         573         574         575         576         577         578         579         580
          581         582         583         584         585         586         587         588         589         590
          591         592         593         594         595         596         597         598         599         600
          601         602         603         604         605         606         607         608         609         610
          611         612         613         614         615         616         617         618         619         620
          621         622         623         624         625         626         627         628         629         630
          631         632         633         634         635         636         637         638         639         640
          641         642         643         644         645         646         647         648         649         650
          651         652         653         654         655         656         657         658         659         660
          661         662         663         664         665         666         667         668         669         670
          671         672         673         674         675         676         677         678         679         680
          681         682         683         684         685         686         687         688         689         690
          691         692         693         694         695         696         697         698         699         700
          701         702         703         704         705         706         707         708         709         710
          711         712         713         714         715         716         717         718         719         720
          721         722         723         724         725         726         727         728         729         730
          731         732         733         734         735         736         737         738         739         740
          741         742         743         744         745         746         747         748         749         750
          751         752         753         754         755         756         757         758         759         760
          761         762         763         764         765         766         767         768         769         770
          771         772         773         774         775         776         777         778         779         780
          781         782         783         784         785         786         787         788         789         790
          791         792         793         794         795         796         797         798         799         800
          801         802         803         804         805         806         807         808         809         810
          811         812         813         814         815         816         817         818         819         820
          821         822         823         824         825         826         827         828         829         830
          831         832         833         834         835         836         837         838         839         840
          841         842         843         844         845         846         847         848         849         850
          851         852         853         854         855         856         857         858         859         860
          861         862         863         864         865         866         867         868         869         870
          871         872         873         874         875         876         877         878         879         880
          881         882         883         884         885         886         887         888         889         890
          891         892         893         894         895         896         897         898         899         900
          901         902         903         904         905         906         907         908         909         910
          911         912         913         914         915         916         917         918         919         920
          921         922         923         924         925         926         927         928         929         930
          931         932         933         934         935         936         937         938         939         940
          941         942         943         944         945         946         947         948         949         950
          951         952         953         954         955         956         957         958         959         960
          961         962         963         964         965         966         967         968         969         970
          971         972         973         974         975         976         977         978         979         980
          981         982         983         984         985         986         987         988         989         990
          991         992         993         994         995         996         997         998         999        1000
 ........................................................................................................................
   1    206.9       206.9       206.9       206.9       206.9       206.8       206.8       206.7       206.6       206.6    
        206.5       206.4       206.3       206.2       206.2       206.0       205.9       205.8       205.7       205.6    
        205.4       205.3       205.2       205.0       204.9       204.7       204.5       204.4       204.2       204.0    
        203.8       203.6       203.4       203.2       203.0       202.8       202.6       202.4       202.2       202.0    
        201.8       201.7       201.5       201.3       201.1       200.9       200.7       200.5       200.3       200.1    
        199.9       199.7       199.5       199.3       199.1       198.9       198.7       198.5       198.3       198.1    
        197.9       197.7       197.5       197.3       197.1       196.9       196.7       196.5       196.3       196.1    
        195.9       195.7       195.6       195.4       195.2       195.0       194.8       194.6       194.4       194.2    
        194.0       193.8       193.6       193.4       193.2       193.0       192.8       192.6       192.4       192.2    
        192.0       191.8       191.6       191.4       191.2       191.0       190.8       190.6       190.4       190.2    
        190.0       189.8       189.6       189.5       189.3       189.1       188.9       188.7       188.5       188.3    
        188.1       187.9       187.7       187.5       187.3       187.1       186.9       186.7       186.5       186.3    
        186.1       185.9       185.7       185.5       185.3       185.1       184.9       184.7       184.5       184.3    
        184.1       183.9       183.7       183.5       183.4       183.2       183.0       182.8       182.6       182.4    
        182.2       182.0       181.8       181.6       181.4       181.2       181.0       180.8       180.6       180.4    
        180.2       180.0       179.8       179.6       179.4       179.2       179.0       178.8       178.6       178.4    
        178.2       178.0       177.8       177.6       177.4       177.3       177.1       176.9       176.7       176.5    
        176.3       176.1       175.9       175.7       175.5       175.3       175.1       174.9       174.7       174.5    
        174.3       174.1       173.9       173.7       173.5       173.3       173.1       172.9       172.7       172.5    
        172.3       172.1       171.9       171.7       171.5       171.3       171.2       171.0       170.8       170.6    
        170.4       170.2       170.0       169.8       169.6       169.4       169.2       169.0       168.8       168.6    
        168.4       168.2       168.0       167.8       167.6       167.4       167.2       167.0       166.8       166.6    
        166.4       166.2       166.0       165.8       165.6       165.4       165.2       165.1       164.9       164.7    
        164.5       164.3       164.1       163.9       163.7       163.5       163.3       163.1       162.9       162.7    
        162.5       162.3       162.1       161.9       161.7       161.5       161.3       161.1       160.9       160.7    
        160.5       160.3       160.1       159.9       159.7       159.5       159.3       159.1       159.0       158.8    
        158.6       158.4       158.2       158.0       157.8       157.6       157.4       157.2       157.0       156.8    
        156.6       156.4       156.2       156.0       155.8       155.6       155.4       155.2       155.0       154.8    
        154.6       154.4       154.2       154.0       153.8       153.6       153.4       153.2       153.0       152.9    
        152.7       152.5       152.3       152.1       151.9       151.7       151.5       151.3       151.1       150.9    
        150.7       150.5       150.3       150.1       149.9       149.7       149.5       149.3       149.1       148.9    
        148.7       148.5       148.3       148.1       147.9       147.7       147.5       147.3       147.1       146.9    
        146.8       146.6       146.4       146.2       146.0       145.8       145.6       145.4       145.2       145.0    
        144.8       144.6       144.4       144.2       144.0       143.8       143.6       143.4       143.2       143.0    
        142.8       142.6       142.4       142.2       142.0       141.8       141.6       141.4       141.2       141.0    
        140.8       140.7       140.5       140.3       140.1       139.9       139.7       139.5       139.3       139.1    
        138.9       138.7       138.5       138.3       138.1       137.9       137.7       137.5       137.3       137.1    
        136.9       136.7       136.5       136.3       136.1       135.9       135.7       135.5       135.3       135.1    
        134.9       134.7       134.6       134.4       134.2       134.0       133.8       133.6       133.4       133.2    
        133.0       132.8       132.6       132.4       132.2       132.0       131.8       131.6       131.4       131.2    
        131.0       130.8       130.6       130.4       130.2       130.0       129.8       129.6       129.4       129.2    
        129.0       128.8       128.6       128.5       128.3       128.1       127.9       127.7       127.5       127.3    
        127.1       126.9       126.7       126.5       126.3       126.1       125.9       125.7       125.5       125.3    
        125.1       124.9       124.7       124.5       124.3       124.1       123.9       123.7       123.5       123.3    
        123.1       122.9       122.7       122.5       122.4       122.2       122.0       121.8       121.6       121.4    
        121.2       121.0       120.8       120.6       120.4       120.2       120.0       119.8       119.6       119.4    
        119.2       119.0       118.8       118.6       118.4       118.2       118.0       117.8       117.6       117.4    
        117.2       117.0       116.8       116.6       116.4       116.3       116.1       115.9       115.7       115.5    
        115.3       115.1       114.9       114.7       114.5       114.3       114.1       113.9       113.7       113.5    
        113.3       113.1       112.9       112.7       112.5       112.3       112.1       111.9       111.7       111.5    
        111.3       111.1       110.9       110.7       110.5       110.3       110.2       110.0       109.8       109.6    
        109.4       109.2       109.0       108.8       108.6       108.4       108.2       108.0       107.8       107.6    
        107.4       107.2       107.0       106.8       106.6       106.4       106.2       106.0       105.8       105.6    
        105.4       105.2       105.0       104.8       104.6       104.4       104.2       104.0       103.9       103.7    
        103.5       103.3       103.1       102.9       102.7       102.5       102.3       102.1       101.9       101.7    
        101.5       101.3       101.1       100.9       100.7       100.5       100.3       100.1       99.92       99.72    
        99.52       99.33       99.13       98.93       98.74       98.54       98.34       98.15       97.95       97.75    
        97.56       97.36       97.16       96.97       96.77       96.57       96.38       96.18       95.98       95.79    
        95.59       95.39       95.19       95.00       94.80       94.60       94.41       94.21       94.01       93.82    
        93.62       93.42       93.23       93.03       92.83       92.64       92.44       92.24       92.05       91.85    
        91.65       91.46       91.26       91.06       90.87       90.67       90.47       90.28       90.08       89.88    
        89.69       89.49       89.29       89.09       88.90       88.70       88.50       88.31       88.11       87.91    
        87.72       87.52       87.32       87.13       86.93       86.73       86.54       86.34       86.14       85.95    
        85.75       85.55       85.36       85.16       84.96       84.77       84.57       84.37       84.18       83.98    
        83.78       83.59       83.39       83.19       82.99       82.80       82.60       82.40       82.21       82.01    
        81.81       81.62       81.42       81.22       81.03       80.83       80.63       80.44       80.24       80.04    
        79.85       79.65       79.45       79.26       79.06       78.86       78.67       78.47       78.27       78.08    
        77.88       77.68       77.49       77.29       77.09       76.89       76.70       76.50       76.30       76.11    
        75.91       75.71       75.52       75.32       75.12       74.93       74.73       74.53       74.34       74.14    
        73.94       73.75       73.55       73.35       73.16       72.96       72.76       72.57       72.37       72.17    
        71.98       71.78       71.58       71.38       71.19       70.99       70.79       70.60       70.40       70.20    
        70.01       69.81       69.61       69.42       69.22       69.02       68.83       68.63       68.43       68.24    
        68.04       67.84       67.65       67.45       67.25       67.06       66.86       66.66       66.47       66.27    
        66.07       65.88       65.68       65.48       65.28       65.09       64.89       64.69       64.50       64.30    
        64.10       63.91       63.71       63.51       63.32       63.12       62.92       62.73       62.53       62.33    
        62.14       61.94       61.74       61.55       61.35       61.15       60.96       60.76       60.56       60.37    
        60.17       59.97       59.78       59.58       59.38       59.18       58.99       58.79       58.59       58.40    
        58.20       58.00       57.81       57.61       57.41       57.22       57.02       56.82       56.63       56.43    
        56.23       56.04       55.84       55.64       55.45       55.25       55.05       54.86       54.66       54.46    
        54.27       54.07       53.87       53.68       53.48       53.28       53.08       52.89       52.69       52.49    
        52.30       52.10       51.90       51.71       51.51       51.31       51.12       50.92       50.72       50.53    
        50.33       50.13       49.94       49.74       49.54       49.35       49.15       48.95       48.76       48.56    
        48.36       48.17       47.97       47.77       47.57       47.38       47.18       46.98       46.79       46.59    
        46.39       46.20       46.00       45.80       45.61       45.41       45.21       45.02       44.82       44.62    
        44.43       44.23       44.03       43.84       43.64       43.44       43.25       43.05       42.85       42.66    
        42.46       42.26       42.07       41.87       41.67       41.48       41.28       41.08       40.88       40.69    
        40.49       40.29       40.10       39.90       39.70       39.51       39.31       39.11       38.92       38.72    
        38.52       38.33       38.13       37.93       37.74       37.54       37.34       37.15       36.95       36.75    
        36.56       36.36       36.16       35.97       35.77       35.57       35.38       35.18       34.98       34.79    
        34.59       34.39       34.20       34.00       33.81       33.61       33.41       33.22       33.02       32.82    
        32.63       32.43       32.23       32.04       31.84       31.65       31.45       31.25       31.06       30.86    
        30.67       30.47       30.27       30.08       29.88       29.69       29.49       29.30       29.10       28.91    
        28.71       28.51       28.32       28.12       27.93       27.74       27.54       27.35       27.15       26.96    
        26.76       26.57       26.38       26.18       25.99       25.80       25.61       25.41       25.22       25.03    
        24.84       24.65       24.46       24.27       24.08       23.89       23.70       23.51       23.32       23.13    
        22.94       22.76       22.57       22.38       22.20       22.02       21.83       21.65       21.47       21.28    
        21.10       20.92       20.74       20.57       20.39       20.21       20.04       19.86       19.69       19.52    
        19.35       19.18       19.01       18.84       18.68       18.51       18.35       18.19       18.03       17.87    
        17.71       17.55       17.40       17.25       17.09       16.94       16.80       16.65       16.50       16.36    
        16.22       16.08       15.94       15.80       15.67       15.53       15.40       15.27       15.13       15.00    

 HEAD WILL BE SAVED ON UNIT 1014 AT END OF TIME STEP    1, STRESS PERIOD    1


  VOLUME BUDGET FOR ENTIRE MODEL AT END OF TIME STEP    1, STRESS PERIOD   1
  ---------------------------------------------------------------------------------------------------

     CUMULATIVE VOLUME      L**3       RATES FOR THIS TIME STEP      L**3/T          PACKAGE NAME    
     ------------------                 ------------------------                     ----------------

           IN:                                      IN:
           ---                                      ---
                 RCH =       6.3356E-05                   RCH =       6.3356E-05     RCH             
                 CHD =           0.0000                   CHD =           0.0000     CHD             

            TOTAL IN =       6.3356E-05              TOTAL IN =       6.3356E-05

          OUT:                                     OUT:
          ----                                     ----
                 RCH =           0.0000                   RCH =           0.0000     RCH             
                 CHD =       6.3356E-05                   CHD =       6.3356E-05     CHD             

           TOTAL OUT =       6.3356E-05             TOTAL OUT =       6.3356E-05

            IN - OUT =      -7.9579E-13              IN - OUT =      -7.9579E-13

 PERCENT DISCREPANCY =          -0.00     PERCENT DISCREPANCY =          -0.00




         TIME SUMMARY AT END OF TIME STEP    1 IN STRESS PERIOD    1
                          TIME STEP LENGTH =    1.00000    
                        STRESS PERIOD TIME =    1.00000    
                     TOTAL SIMULATION TIME =    1.00000    
