                                   MODFLOW 6
                U.S. GEOLOGICAL SURVEY MODULAR HYDROLOGIC MODEL
                            VERSION 6.1.0 12/12/2019

   MODFLOW 6 compiled Dec 12 2019 13:30:12 with IFORT compiler (ver. 19.0.5)

This software has been approved for release by the U.S. Geological 
Survey (USGS). Although the software has been subjected to rigorous 
review, the USGS reserves the right to update the software as needed 
pursuant to further analysis and review. No warranty, expressed or 
implied, is made by the USGS or the U.S. Government as to the 
functionality of the software and related material nor shall the 
fact of release constitute any such warranty. Furthermore, the 
software is released on condition that neither the USGS nor the U.S. 
Government shall be held liable for any damages resulting from its 
authorized or unauthorized use. Also refer to the USGS Water 
Resources Software User Rights Notice for complete use, copyright, 
and distribution information.


System command used to initiate simulation:
../../src/mf6

MODFLOW was compiled using uniform precision.
Real Variables
  PRECISION: 15
  KIND: 8
  TINY (smallest non-zero value):    2.225074-308
  HUGE (largest value):    1.797693+308
Integer Variables
  KIND: 4
  HUGE (largest value): 2147483647
  BIT_SIZE: 32
 

 OPENED mfsim.nam
 FILE TYPE:NAM   UNIT 1001   STATUS:OLD                 
 FORMAT:FORMATTED              ACCESS:SEQUENTIAL          
 ACTION:READ                


 READING SIMULATION OPTIONS
 END OF SIMULATION OPTIONS

 READING SIMULATION TIMING

 OPENED benchmark_mf6.tdis
 FILE TYPE:TDIS   UNIT 1002   STATUS:OLD                 
 FORMAT:FORMATTED              ACCESS:SEQUENTIAL          
 ACTION:READ                


 TDIS -- TEMPORAL DISCRETIZATION PACKAGE,
 VERSION 1 : 11/13/2014 - INPUT READ FROM UNIT 1002
 PROCESSING TDIS OPTIONS
 END OF TDIS OPTIONS
    SIMULATION TIME UNIT IS UNDEFINED
 PROCESSING TDIS DIMENSIONS
    1 STRESS PERIOD(S) IN SIMULATION
 END OF TDIS DIMENSIONS
 PROCESSING TDIS PERIODDATA


 STRESS PERIOD     LENGTH       TIME STEPS     MULTIPLIER FOR DELT
 ----------------------------------------------------------------------------
        1         1.000000          1                    1.000
 END OF TDIS PERIODDATA
 END OF SIMULATION TIMING

 READING SIMULATION MODELS
    GWF6 model BENCHMARK_MF6 will be created as model 1
 END OF SIMULATION MODELS

 READING SIMULATION EXCHANGES
 END OF SIMULATION EXCHANGES

 READING SOLUTIONGROUP

 Creating solution: SLN_1           

 OPENED benchmark_mf6.ims
 FILE TYPE:IMS   UNIT 1011   STATUS:OLD                 
 FORMAT:FORMATTED              ACCESS:SEQUENTIAL          
 ACTION:READ                

 END OF SIMULATION SOLUTIONGROUP

 IMS -- ITERATIVE MODEL SOLUTION PACKAGE, VERSION 6, 4/28/2017
         INPUT READ FROM UNIT 1011

 PROCESSING IMS OPTIONS
 COMPLEX OPTION:
 DEFAULT SOLVER INPUT VALUES REFLECT STRONGLY NONLINEAR MODEL

 OPENED benchmark_mf6.csv
 FILE TYPE:CSV_OUTPUT   UNIT 1015   STATUS:REPLACE             
 FORMAT:FORMATTED              ACCESS:SEQUENTIAL          
 ACTION:READWRITE           

    CSV OUTPUT WILL BE SAVED TO FILE: benchmark_mf6.csv
    OPENED ON UNIT:    1015
 END OF IMS OPTIONS

 PROCESSING IMS NONLINEAR
 END OF IMS NONLINEAR DATA
 **UNDER-RELAXATION WILL BE USED***
 
 ***IMS LINEAR SOLVER WILL BE USED***

 IMSLINEAR -- UNSTRUCTURED LINEAR SOLUTION PACKAGE, VERSION 8, 04/28/2017

 PROCESSING LINEAR DATA
 END OF LINEAR DATA
 
 OUTER ITERATION CONVERGENCE CRITERION     (HCLOSE) =    0.100000E-06
 OUTER ITERATION BOUNDARY FLOW RESIDUAL (RCLOSEBND) =    0.100000E-06
 MAXIMUM NUMBER OF OUTER ITERATIONS        (MXITER) =     10000
 SOLVER PRINTOUT INDEX                     (IPRIMS) =         2
 NONLINEAR ITERATION METHOD            (NONLINMETH) =         3
 LINEAR SOLUTION METHOD                   (LINMETH) =         1
 UNDER-RELAXATION WEIGHT REDUCTION FACTOR   (THETA) =    0.900000E+00
 UNDER-RELAXATION WEIGHT INCREASE INCREMENT (KAPPA) =    0.100000E+00
 UNDER-RELAXATION PREVIOUS HISTORY FACTOR   (GAMMA) =    0.100000E+01
 UNDER-RELAXATIONMOMENTUM TERM          (AMOMENTUM) =    0.000000E+00
    MAXIMUM NUMBER OF BACKTRACKS         (NUMTRACK) =         0

       SOLUTION BY THE BICONJUGATE-GRADIENT STABILIZED METHOD
 ------------------------------------------------------------------
 MAXIMUM OF  10000 CALLS OF SOLUTION ROUTINE
 MAXIMUM OF   1000 INTERNAL ITERATIONS PER CALL TO SOLUTION ROUTINE
 LINEAR ACCELERATION METHOD            = BCGS      
 MATRIX PRECONDITIONING TYPE           = MOD. INCOMPLETE LUT 
 MATRIX SCALING APPROACH               = L2 NORM SCALING     
 MATRIX REORDERING APPROACH            = MINIMUM DEGREE ORDERING  
 NUMBER OF ORTHOGONALIZATIONS          =        2
 HEAD CHANGE CRITERION FOR CLOSURE     =    0.10000E-03
 RESIDUAL CHANGE CRITERION FOR CLOSURE =    0.10000E-04
 RESIDUAL CONVERGENCE OPTION           =        0
 RESIDUAL CONVERGENCE NORM             = INFINITY NORM   
 RELAXATION FACTOR                     =    0.97000E+00
 NUMBER OF LEVELS                      =              5
 DROP TOLERANCE                        =    0.10000E-03


 ORIGINAL NODE      :      1      2      3      4      5      6
 -------------------- ------ ------ ------ ------ ------ ------
 REORDERED INDEX    :   2000   1000    999   1999   1998    998
 REORDERED NODE     :   2000   1999   1995   1994   1991   1990
 --------------------------------------------------------------

 ORIGINAL NODE      :      7      8      9     10     11     12
 -------------------- ------ ------ ------ ------ ------ ------
 REORDERED INDEX    :    997   1997   1996    996    995   1995
 REORDERED NODE     :   1987   1986   1983   1982   1979   1978
 --------------------------------------------------------------

 ORIGINAL NODE      :     13     14     15     16     17     18
 -------------------- ------ ------ ------ ------ ------ ------
 REORDERED INDEX    :   1994    994    993   1993   1992    992
 REORDERED NODE     :   1975   1974   1971   1970   1967   1966
 --------------------------------------------------------------

 ORIGINAL NODE      :     19     20     21     22     23     24
 -------------------- ------ ------ ------ ------ ------ ------
 REORDERED INDEX    :    991   1991   1990    990    989   1989
 REORDERED NODE     :   1963   1962   1959   1958   1955   1954
 --------------------------------------------------------------

 ORIGINAL NODE      :     25     26     27     28     29     30
 -------------------- ------ ------ ------ ------ ------ ------
 REORDERED INDEX    :   1988    988    987   1987   1986    986
 REORDERED NODE     :   1951   1950   1947   1946   1943   1942
 --------------------------------------------------------------

 ORIGINAL NODE      :     31     32     33     34     35     36
 -------------------- ------ ------ ------ ------ ------ ------
 REORDERED INDEX    :    985   1985   1984    984    983   1983
 REORDERED NODE     :   1939   1938   1935   1934   1931   1930
 --------------------------------------------------------------

 ORIGINAL NODE      :     37     38     39     40     41     42
 -------------------- ------ ------ ------ ------ ------ ------
 REORDERED INDEX    :   1982    982    981   1981   1980    980
 REORDERED NODE     :   1927   1926   1923   1922   1919   1918
 --------------------------------------------------------------

 ORIGINAL NODE      :     43     44     45     46     47     48
 -------------------- ------ ------ ------ ------ ------ ------
 REORDERED INDEX    :    979   1979   1978    978    977   1977
 REORDERED NODE     :   1915   1914   1911   1910   1907   1906
 --------------------------------------------------------------

 ORIGINAL NODE      :     49     50     51     52     53     54
 -------------------- ------ ------ ------ ------ ------ ------
 REORDERED INDEX    :   1976    976    975   1975   1974    974
 REORDERED NODE     :   1903   1902   1899   1898   1895   1894
 --------------------------------------------------------------

 ORIGINAL NODE      :     55     56     57     58     59     60
 -------------------- ------ ------ ------ ------ ------ ------
 REORDERED INDEX    :    973   1973   1972    972    971   1971
 REORDERED NODE     :   1891   1890   1887   1886   1883   1882
 --------------------------------------------------------------

 ORIGINAL NODE      :     61     62     63     64     65     66
 -------------------- ------ ------ ------ ------ ------ ------
 REORDERED INDEX    :   1970    970    969   1969   1968    968
 REORDERED NODE     :   1879   1878   1875   1874   1871   1870
 --------------------------------------------------------------

 ORIGINAL NODE      :     67     68     69     70     71     72
 -------------------- ------ ------ ------ ------ ------ ------
 REORDERED INDEX    :    967   1967   1966    966    965   1965
 REORDERED NODE     :   1867   1866   1863   1862   1859   1858
 --------------------------------------------------------------

 ORIGINAL NODE      :     73     74     75     76     77     78
 -------------------- ------ ------ ------ ------ ------ ------
 REORDERED INDEX    :   1964    964    963   1963   1962    962
 REORDERED NODE     :   1855   1854   1851   1850   1847   1846
 --------------------------------------------------------------

 ORIGINAL NODE      :     79     80     81     82     83     84
 -------------------- ------ ------ ------ ------ ------ ------
 REORDERED INDEX    :    961   1961   1960    960    959   1959
 REORDERED NODE     :   1843   1842   1839   1838   1835   1834
 --------------------------------------------------------------

 ORIGINAL NODE      :     85     86     87     88     89     90
 -------------------- ------ ------ ------ ------ ------ ------
 REORDERED INDEX    :   1958    958    957   1957   1956    956
 REORDERED NODE     :   1831   1830   1827   1826   1823   1822
 --------------------------------------------------------------

 ORIGINAL NODE      :     91     92     93     94     95     96
 -------------------- ------ ------ ------ ------ ------ ------
 REORDERED INDEX    :    955   1955   1954    954    953   1953
 REORDERED NODE     :   1819   1818   1815   1814   1811   1810
 --------------------------------------------------------------

 ORIGINAL NODE      :     97     98     99    100    101    102
 -------------------- ------ ------ ------ ------ ------ ------
 REORDERED INDEX    :   1952    952    951   1951   1950    950
 REORDERED NODE     :   1807   1806   1803   1802   1799   1798
 --------------------------------------------------------------

 ORIGINAL NODE      :    103    104    105    106    107    108
 -------------------- ------ ------ ------ ------ ------ ------
 REORDERED INDEX    :    949   1949   1948    948    947   1947
 REORDERED NODE     :   1795   1794   1791   1790   1787   1786
 --------------------------------------------------------------

 ORIGINAL NODE      :    109    110    111    112    113    114
 -------------------- ------ ------ ------ ------ ------ ------
 REORDERED INDEX    :   1946    946    945   1945   1944    944
 REORDERED NODE     :   1783   1782   1779   1778   1775   1774
 --------------------------------------------------------------

 ORIGINAL NODE      :    115    116    117    118    119    120
 -------------------- ------ ------ ------ ------ ------ ------
 REORDERED INDEX    :    943   1943   1942    942    941   1941
 REORDERED NODE     :   1771   1770   1767   1766   1763   1762
 --------------------------------------------------------------

 ORIGINAL NODE      :    121    122    123    124    125    126
 -------------------- ------ ------ ------ ------ ------ ------
 REORDERED INDEX    :   1940    940    939   1939   1938    938
 REORDERED NODE     :   1759   1758   1755   1754   1751   1750
 --------------------------------------------------------------

 ORIGINAL NODE      :    127    128    129    130    131    132
 -------------------- ------ ------ ------ ------ ------ ------
 REORDERED INDEX    :    937   1937   1936    936    935   1935
 REORDERED NODE     :   1747   1746   1743   1742   1739   1738
 --------------------------------------------------------------

 ORIGINAL NODE      :    133    134    135    136    137    138
 -------------------- ------ ------ ------ ------ ------ ------
 REORDERED INDEX    :   1934    934    933   1933   1932    932
 REORDERED NODE     :   1735   1734   1731   1730   1727   1726
 --------------------------------------------------------------

 ORIGINAL NODE      :    139    140    141    142    143    144
 -------------------- ------ ------ ------ ------ ------ ------
 REORDERED INDEX    :    931   1931   1930    930    929   1929
 REORDERED NODE     :   1723   1722   1719   1718   1715   1714
 --------------------------------------------------------------

 ORIGINAL NODE      :    145    146    147    148    149    150
 -------------------- ------ ------ ------ ------ ------ ------
 REORDERED INDEX    :   1928    928    927   1927   1926    926
 REORDERED NODE     :   1711   1710   1707   1706   1703   1702
 --------------------------------------------------------------

 ORIGINAL NODE      :    151    152    153    154    155    156
 -------------------- ------ ------ ------ ------ ------ ------
 REORDERED INDEX    :    925   1925   1924    924    923   1923
 REORDERED NODE     :   1699   1698   1695   1694   1691   1690
 --------------------------------------------------------------

 ORIGINAL NODE      :    157    158    159    160    161    162
 -------------------- ------ ------ ------ ------ ------ ------
 REORDERED INDEX    :   1922    922    921   1921   1920    920
 REORDERED NODE     :   1687   1686   1683   1682   1679   1678
 --------------------------------------------------------------

 ORIGINAL NODE      :    163    164    165    166    167    168
 -------------------- ------ ------ ------ ------ ------ ------
 REORDERED INDEX    :    919   1919   1918    918    917   1917
 REORDERED NODE     :   1675   1674   1671   1670   1667   1666
 --------------------------------------------------------------

 ORIGINAL NODE      :    169    170    171    172    173    174
 -------------------- ------ ------ ------ ------ ------ ------
 REORDERED INDEX    :   1916    916    915   1915   1914    914
 REORDERED NODE     :   1663   1662   1659   1658   1655   1654
 --------------------------------------------------------------

 ORIGINAL NODE      :    175    176    177    178    179    180
 -------------------- ------ ------ ------ ------ ------ ------
 REORDERED INDEX    :    913   1913   1912    912    911   1911
 REORDERED NODE     :   1651   1650   1647   1646   1643   1642
 --------------------------------------------------------------

 ORIGINAL NODE      :    181    182    183    184    185    186
 -------------------- ------ ------ ------ ------ ------ ------
 REORDERED INDEX    :   1910    910    909   1909   1908    908
 REORDERED NODE     :   1639   1638   1635   1634   1631   1630
 --------------------------------------------------------------

 ORIGINAL NODE      :    187    188    189    190    191    192
 -------------------- ------ ------ ------ ------ ------ ------
 REORDERED INDEX    :    907   1907   1906    906    905   1905
 REORDERED NODE     :   1627   1626   1623   1622   1619   1618
 --------------------------------------------------------------

 ORIGINAL NODE      :    193    194    195    196    197    198
 -------------------- ------ ------ ------ ------ ------ ------
 REORDERED INDEX    :   1904    904    903   1903   1902    902
 REORDERED NODE     :   1615   1614   1611   1610   1607   1606
 --------------------------------------------------------------

 ORIGINAL NODE      :    199    200    201    202    203    204
 -------------------- ------ ------ ------ ------ ------ ------
 REORDERED INDEX    :    901   1901   1900    900    899   1899
 REORDERED NODE     :   1603   1602   1599   1598   1595   1594
 --------------------------------------------------------------

 ORIGINAL NODE      :    205    206    207    208    209    210
 -------------------- ------ ------ ------ ------ ------ ------
 REORDERED INDEX    :   1898    898    897   1897   1896    896
 REORDERED NODE     :   1591   1590   1587   1586   1583   1582
 --------------------------------------------------------------

 ORIGINAL NODE      :    211    212    213    214    215    216
 -------------------- ------ ------ ------ ------ ------ ------
 REORDERED INDEX    :    895   1895   1894    894    893   1893
 REORDERED NODE     :   1579   1578   1575   1574   1571   1570
 --------------------------------------------------------------

 ORIGINAL NODE      :    217    218    219    220    221    222
 -------------------- ------ ------ ------ ------ ------ ------
 REORDERED INDEX    :   1892    892    891   1891   1890    890
 REORDERED NODE     :   1567   1566   1563   1562   1559   1558
 --------------------------------------------------------------

 ORIGINAL NODE      :    223    224    225    226    227    228
 -------------------- ------ ------ ------ ------ ------ ------
 REORDERED INDEX    :    889   1889   1888    888    887   1887
 REORDERED NODE     :   1555   1554   1551   1550   1547   1546
 --------------------------------------------------------------

 ORIGINAL NODE      :    229    230    231    232    233    234
 -------------------- ------ ------ ------ ------ ------ ------
 REORDERED INDEX    :   1886    886    885   1885   1884    884
 REORDERED NODE     :   1543   1542   1539   1538   1535   1534
 --------------------------------------------------------------

 ORIGINAL NODE      :    235    236    237    238    239    240
 -------------------- ------ ------ ------ ------ ------ ------
 REORDERED INDEX    :    883   1883   1882    882    881   1881
 REORDERED NODE     :   1531   1530   1527   1526   1523   1522
 --------------------------------------------------------------

 ORIGINAL NODE      :    241    242    243    244    245    246
 -------------------- ------ ------ ------ ------ ------ ------
 REORDERED INDEX    :   1880    880    879   1879   1878    878
 REORDERED NODE     :   1519   1518   1515   1514   1511   1510
 --------------------------------------------------------------

 ORIGINAL NODE      :    247    248    249    250    251    252
 -------------------- ------ ------ ------ ------ ------ ------
 REORDERED INDEX    :    877   1877   1876    876    875   1875
 REORDERED NODE     :   1507   1506   1503   1502   1499   1498
 --------------------------------------------------------------

 ORIGINAL NODE      :    253    254    255    256    257    258
 -------------------- ------ ------ ------ ------ ------ ------
 REORDERED INDEX    :   1874    874    873   1873   1872    872
 REORDERED NODE     :   1495   1494   1491   1490   1487   1486
 --------------------------------------------------------------

 ORIGINAL NODE      :    259    260    261    262    263    264
 -------------------- ------ ------ ------ ------ ------ ------
 REORDERED INDEX    :    871   1871   1870    870    869   1869
 REORDERED NODE     :   1483   1482   1479   1478   1475   1474
 --------------------------------------------------------------

 ORIGINAL NODE      :    265    266    267    268    269    270
 -------------------- ------ ------ ------ ------ ------ ------
 REORDERED INDEX    :   1868    868    867   1867   1866    866
 REORDERED NODE     :   1471   1470   1467   1466   1463   1462
 --------------------------------------------------------------

 ORIGINAL NODE      :    271    272    273    274    275    276
 -------------------- ------ ------ ------ ------ ------ ------
 REORDERED INDEX    :    865   1865   1864    864    863   1863
 REORDERED NODE     :   1459   1458   1455   1454   1451   1450
 --------------------------------------------------------------

 ORIGINAL NODE      :    277    278    279    280    281    282
 -------------------- ------ ------ ------ ------ ------ ------
 REORDERED INDEX    :   1862    862    861   1861   1860    860
 REORDERED NODE     :   1447   1446   1443   1442   1439   1438
 --------------------------------------------------------------

 ORIGINAL NODE      :    283    284    285    286    287    288
 -------------------- ------ ------ ------ ------ ------ ------
 REORDERED INDEX    :    859   1859   1858    858    857   1857
 REORDERED NODE     :   1435   1434   1431   1430   1427   1426
 --------------------------------------------------------------

 ORIGINAL NODE      :    289    290    291    292    293    294
 -------------------- ------ ------ ------ ------ ------ ------
 REORDERED INDEX    :   1856    856    855   1855   1854    854
 REORDERED NODE     :   1423   1422   1419   1418   1415   1414
 --------------------------------------------------------------

 ORIGINAL NODE      :    295    296    297    298    299    300
 -------------------- ------ ------ ------ ------ ------ ------
 REORDERED INDEX    :    853   1853   1852    852    851   1851
 REORDERED NODE     :   1411   1410   1407   1406   1403   1402
 --------------------------------------------------------------

 ORIGINAL NODE      :    301    302    303    304    305    306
 -------------------- ------ ------ ------ ------ ------ ------
 REORDERED INDEX    :   1850    850    849   1849   1848    848
 REORDERED NODE     :   1399   1398   1395   1394   1391   1390
 --------------------------------------------------------------

 ORIGINAL NODE      :    307    308    309    310    311    312
 -------------------- ------ ------ ------ ------ ------ ------
 REORDERED INDEX    :    847   1847   1846    846    845   1845
 REORDERED NODE     :   1387   1386   1383   1382   1379   1378
 --------------------------------------------------------------

 ORIGINAL NODE      :    313    314    315    316    317    318
 -------------------- ------ ------ ------ ------ ------ ------
 REORDERED INDEX    :   1844    844    843   1843   1842    842
 REORDERED NODE     :   1375   1374   1371   1370   1367   1366
 --------------------------------------------------------------

 ORIGINAL NODE      :    319    320    321    322    323    324
 -------------------- ------ ------ ------ ------ ------ ------
 REORDERED INDEX    :    841   1841   1840    840    839   1839
 REORDERED NODE     :   1363   1362   1359   1358   1355   1354
 --------------------------------------------------------------

 ORIGINAL NODE      :    325    326    327    328    329    330
 -------------------- ------ ------ ------ ------ ------ ------
 REORDERED INDEX    :   1838    838    837   1837   1836    836
 REORDERED NODE     :   1351   1350   1347   1346   1343   1342
 --------------------------------------------------------------

 ORIGINAL NODE      :    331    332    333    334    335    336
 -------------------- ------ ------ ------ ------ ------ ------
 REORDERED INDEX    :    835   1835   1834    834    833   1833
 REORDERED NODE     :   1339   1338   1335   1334   1331   1330
 --------------------------------------------------------------

 ORIGINAL NODE      :    337    338    339    340    341    342
 -------------------- ------ ------ ------ ------ ------ ------
 REORDERED INDEX    :   1832    832    831   1831   1830    830
 REORDERED NODE     :   1327   1326   1323   1322   1319   1318
 --------------------------------------------------------------

 ORIGINAL NODE      :    343    344    345    346    347    348
 -------------------- ------ ------ ------ ------ ------ ------
 REORDERED INDEX    :    829   1829   1828    828    827   1827
 REORDERED NODE     :   1315   1314   1311   1310   1307   1306
 --------------------------------------------------------------

 ORIGINAL NODE      :    349    350    351    352    353    354
 -------------------- ------ ------ ------ ------ ------ ------
 REORDERED INDEX    :   1826    826    825   1825   1824    824
 REORDERED NODE     :   1303   1302   1299   1298   1295   1294
 --------------------------------------------------------------

 ORIGINAL NODE      :    355    356    357    358    359    360
 -------------------- ------ ------ ------ ------ ------ ------
 REORDERED INDEX    :    823   1823   1822    822    821   1821
 REORDERED NODE     :   1291   1290   1287   1286   1283   1282
 --------------------------------------------------------------

 ORIGINAL NODE      :    361    362    363    364    365    366
 -------------------- ------ ------ ------ ------ ------ ------
 REORDERED INDEX    :   1820    820    819   1819   1818    818
 REORDERED NODE     :   1279   1278   1275   1274   1271   1270
 --------------------------------------------------------------

 ORIGINAL NODE      :    367    368    369    370    371    372
 -------------------- ------ ------ ------ ------ ------ ------
 REORDERED INDEX    :    817   1817   1816    816    815   1815
 REORDERED NODE     :   1267   1266   1263   1262   1259   1258
 --------------------------------------------------------------

 ORIGINAL NODE      :    373    374    375    376    377    378
 -------------------- ------ ------ ------ ------ ------ ------
 REORDERED INDEX    :   1814    814    813   1813   1812    812
 REORDERED NODE     :   1255   1254   1251   1250   1247   1246
 --------------------------------------------------------------

 ORIGINAL NODE      :    379    380    381    382    383    384
 -------------------- ------ ------ ------ ------ ------ ------
 REORDERED INDEX    :    811   1811   1810    810    809   1809
 REORDERED NODE     :   1243   1242   1239   1238   1235   1234
 --------------------------------------------------------------

 ORIGINAL NODE      :    385    386    387    388    389    390
 -------------------- ------ ------ ------ ------ ------ ------
 REORDERED INDEX    :   1808    808    807   1807   1806    806
 REORDERED NODE     :   1231   1230   1227   1226   1223   1222
 --------------------------------------------------------------

 ORIGINAL NODE      :    391    392    393    394    395    396
 -------------------- ------ ------ ------ ------ ------ ------
 REORDERED INDEX    :    805   1805   1804    804    803   1803
 REORDERED NODE     :   1219   1218   1215   1214   1211   1210
 --------------------------------------------------------------

 ORIGINAL NODE      :    397    398    399    400    401    402
 -------------------- ------ ------ ------ ------ ------ ------
 REORDERED INDEX    :   1802    802    801   1801   1800    800
 REORDERED NODE     :   1207   1206   1203   1202   1199   1198
 --------------------------------------------------------------

 ORIGINAL NODE      :    403    404    405    406    407    408
 -------------------- ------ ------ ------ ------ ------ ------
 REORDERED INDEX    :    799   1799   1798    798    797   1797
 REORDERED NODE     :   1195   1194   1191   1190   1187   1186
 --------------------------------------------------------------

 ORIGINAL NODE      :    409    410    411    412    413    414
 -------------------- ------ ------ ------ ------ ------ ------
 REORDERED INDEX    :   1796    796    795   1795   1794    794
 REORDERED NODE     :   1183   1182   1179   1178   1175   1174
 --------------------------------------------------------------

 ORIGINAL NODE      :    415    416    417    418    419    420
 -------------------- ------ ------ ------ ------ ------ ------
 REORDERED INDEX    :    793   1793   1792    792    791   1791
 REORDERED NODE     :   1171   1170   1167   1166   1163   1162
 --------------------------------------------------------------

 ORIGINAL NODE      :    421    422    423    424    425    426
 -------------------- ------ ------ ------ ------ ------ ------
 REORDERED INDEX    :   1790    790    789   1789   1788    788
 REORDERED NODE     :   1159   1158   1155   1154   1151   1150
 --------------------------------------------------------------

 ORIGINAL NODE      :    427    428    429    430    431    432
 -------------------- ------ ------ ------ ------ ------ ------
 REORDERED INDEX    :    787   1787   1786    786    785   1785
 REORDERED NODE     :   1147   1146   1143   1142   1139   1138
 --------------------------------------------------------------

 ORIGINAL NODE      :    433    434    435    436    437    438
 -------------------- ------ ------ ------ ------ ------ ------
 REORDERED INDEX    :   1784    784    783   1783   1782    782
 REORDERED NODE     :   1135   1134   1131   1130   1127   1126
 --------------------------------------------------------------

 ORIGINAL NODE      :    439    440    441    442    443    444
 -------------------- ------ ------ ------ ------ ------ ------
 REORDERED INDEX    :    781   1781   1780    780    779   1779
 REORDERED NODE     :   1123   1122   1119   1118   1115   1114
 --------------------------------------------------------------

 ORIGINAL NODE      :    445    446    447    448    449    450
 -------------------- ------ ------ ------ ------ ------ ------
 REORDERED INDEX    :   1778    778    777   1777   1776    776
 REORDERED NODE     :   1111   1110   1107   1106   1103   1102
 --------------------------------------------------------------

 ORIGINAL NODE      :    451    452    453    454    455    456
 -------------------- ------ ------ ------ ------ ------ ------
 REORDERED INDEX    :    775   1775   1774    774    773   1773
 REORDERED NODE     :   1099   1098   1095   1094   1091   1090
 --------------------------------------------------------------

 ORIGINAL NODE      :    457    458    459    460    461    462
 -------------------- ------ ------ ------ ------ ------ ------
 REORDERED INDEX    :   1772    772    771   1771   1770    770
 REORDERED NODE     :   1087   1086   1083   1082   1079   1078
 --------------------------------------------------------------

 ORIGINAL NODE      :    463    464    465    466    467    468
 -------------------- ------ ------ ------ ------ ------ ------
 REORDERED INDEX    :    769   1769   1768    768    767   1767
 REORDERED NODE     :   1075   1074   1071   1070   1067   1066
 --------------------------------------------------------------

 ORIGINAL NODE      :    469    470    471    472    473    474
 -------------------- ------ ------ ------ ------ ------ ------
 REORDERED INDEX    :   1766    766    765   1765   1764    764
 REORDERED NODE     :   1063   1062   1059   1058   1055   1054
 --------------------------------------------------------------

 ORIGINAL NODE      :    475    476    477    478    479    480
 -------------------- ------ ------ ------ ------ ------ ------
 REORDERED INDEX    :    763   1763   1762    762    761   1761
 REORDERED NODE     :   1051   1050   1047   1046   1043   1042
 --------------------------------------------------------------

 ORIGINAL NODE      :    481    482    483    484    485    486
 -------------------- ------ ------ ------ ------ ------ ------
 REORDERED INDEX    :   1760    760    759   1759   1758    758
 REORDERED NODE     :   1039   1038   1035   1034   1031   1030
 --------------------------------------------------------------

 ORIGINAL NODE      :    487    488    489    490    491    492
 -------------------- ------ ------ ------ ------ ------ ------
 REORDERED INDEX    :    757   1757   1756    756    755   1755
 REORDERED NODE     :   1027   1026   1023   1022   1019   1018
 --------------------------------------------------------------

 ORIGINAL NODE      :    493    494    495    496    497    498
 -------------------- ------ ------ ------ ------ ------ ------
 REORDERED INDEX    :   1754    754    753   1753   1752    752
 REORDERED NODE     :   1015   1014   1011   1010   1007   1006
 --------------------------------------------------------------

 ORIGINAL NODE      :    499    500    501    502    503    504
 -------------------- ------ ------ ------ ------ ------ ------
 REORDERED INDEX    :    751   1751   1750    750    749   1749
 REORDERED NODE     :   1003   1002    999    998    995    994
 --------------------------------------------------------------

 ORIGINAL NODE      :    505    506    507    508    509    510
 -------------------- ------ ------ ------ ------ ------ ------
 REORDERED INDEX    :   1748    748    747   1747   1746    746
 REORDERED NODE     :    991    990    987    986    983    982
 --------------------------------------------------------------

 ORIGINAL NODE      :    511    512    513    514    515    516
 -------------------- ------ ------ ------ ------ ------ ------
 REORDERED INDEX    :    745   1745   1744    744    743   1743
 REORDERED NODE     :    979    978    975    974    971    970
 --------------------------------------------------------------

 ORIGINAL NODE      :    517    518    519    520    521    522
 -------------------- ------ ------ ------ ------ ------ ------
 REORDERED INDEX    :   1742    742    741   1741   1740    740
 REORDERED NODE     :    967    966    963    962    959    958
 --------------------------------------------------------------

 ORIGINAL NODE      :    523    524    525    526    527    528
 -------------------- ------ ------ ------ ------ ------ ------
 REORDERED INDEX    :    739   1739   1738    738    737   1737
 REORDERED NODE     :    955    954    951    950    947    946
 --------------------------------------------------------------

 ORIGINAL NODE      :    529    530    531    532    533    534
 -------------------- ------ ------ ------ ------ ------ ------
 REORDERED INDEX    :   1736    736    735   1735   1734    734
 REORDERED NODE     :    943    942    939    938    935    934
 --------------------------------------------------------------

 ORIGINAL NODE      :    535    536    537    538    539    540
 -------------------- ------ ------ ------ ------ ------ ------
 REORDERED INDEX    :    733   1733   1732    732    731   1731
 REORDERED NODE     :    931    930    927    926    923    922
 --------------------------------------------------------------

 ORIGINAL NODE      :    541    542    543    544    545    546
 -------------------- ------ ------ ------ ------ ------ ------
 REORDERED INDEX    :   1730    730    729   1729   1728    728
 REORDERED NODE     :    919    918    915    914    911    910
 --------------------------------------------------------------

 ORIGINAL NODE      :    547    548    549    550    551    552
 -------------------- ------ ------ ------ ------ ------ ------
 REORDERED INDEX    :    727   1727   1726    726    725   1725
 REORDERED NODE     :    907    906    903    902    899    898
 --------------------------------------------------------------

 ORIGINAL NODE      :    553    554    555    556    557    558
 -------------------- ------ ------ ------ ------ ------ ------
 REORDERED INDEX    :   1724    724    723   1723   1722    722
 REORDERED NODE     :    895    894    891    890    887    886
 --------------------------------------------------------------

 ORIGINAL NODE      :    559    560    561    562    563    564
 -------------------- ------ ------ ------ ------ ------ ------
 REORDERED INDEX    :    721   1721   1720    720    719   1719
 REORDERED NODE     :    883    882    879    878    875    874
 --------------------------------------------------------------

 ORIGINAL NODE      :    565    566    567    568    569    570
 -------------------- ------ ------ ------ ------ ------ ------
 REORDERED INDEX    :   1718    718    717   1717   1716    716
 REORDERED NODE     :    871    870    867    866    863    862
 --------------------------------------------------------------

 ORIGINAL NODE      :    571    572    573    574    575    576
 -------------------- ------ ------ ------ ------ ------ ------
 REORDERED INDEX    :    715   1715   1714    714    713   1713
 REORDERED NODE     :    859    858    855    854    851    850
 --------------------------------------------------------------

 ORIGINAL NODE      :    577    578    579    580    581    582
 -------------------- ------ ------ ------ ------ ------ ------
 REORDERED INDEX    :   1712    712    711   1711   1710    710
 REORDERED NODE     :    847    846    843    842    839    838
 --------------------------------------------------------------

 ORIGINAL NODE      :    583    584    585    586    587    588
 -------------------- ------ ------ ------ ------ ------ ------
 REORDERED INDEX    :    709   1709   1708    708    707   1707
 REORDERED NODE     :    835    834    831    830    827    826
 --------------------------------------------------------------

 ORIGINAL NODE      :    589    590    591    592    593    594
 -------------------- ------ ------ ------ ------ ------ ------
 REORDERED INDEX    :   1706    706    705   1705   1704    704
 REORDERED NODE     :    823    822    819    818    815    814
 --------------------------------------------------------------

 ORIGINAL NODE      :    595    596    597    598    599    600
 -------------------- ------ ------ ------ ------ ------ ------
 REORDERED INDEX    :    703   1703   1702    702    701   1701
 REORDERED NODE     :    811    810    807    806    803    802
 --------------------------------------------------------------

 ORIGINAL NODE      :    601    602    603    604    605    606
 -------------------- ------ ------ ------ ------ ------ ------
 REORDERED INDEX    :   1700    700    699   1699   1698    698
 REORDERED NODE     :    799    798    795    794    791    790
 --------------------------------------------------------------

 ORIGINAL NODE      :    607    608    609    610    611    612
 -------------------- ------ ------ ------ ------ ------ ------
 REORDERED INDEX    :    697   1697   1696    696    695   1695
 REORDERED NODE     :    787    786    783    782    779    778
 --------------------------------------------------------------

 ORIGINAL NODE      :    613    614    615    616    617    618
 -------------------- ------ ------ ------ ------ ------ ------
 REORDERED INDEX    :   1694    694    693   1693   1692    692
 REORDERED NODE     :    775    774    771    770    767    766
 --------------------------------------------------------------

 ORIGINAL NODE      :    619    620    621    622    623    624
 -------------------- ------ ------ ------ ------ ------ ------
 REORDERED INDEX    :    691   1691   1690    690    689   1689
 REORDERED NODE     :    763    762    759    758    755    754
 --------------------------------------------------------------

 ORIGINAL NODE      :    625    626    627    628    629    630
 -------------------- ------ ------ ------ ------ ------ ------
 REORDERED INDEX    :   1688    688    687   1687   1686    686
 REORDERED NODE     :    751    750    747    746    743    742
 --------------------------------------------------------------

 ORIGINAL NODE      :    631    632    633    634    635    636
 -------------------- ------ ------ ------ ------ ------ ------
 REORDERED INDEX    :    685   1685   1684    684    683   1683
 REORDERED NODE     :    739    738    735    734    731    730
 --------------------------------------------------------------

 ORIGINAL NODE      :    637    638    639    640    641    642
 -------------------- ------ ------ ------ ------ ------ ------
 REORDERED INDEX    :   1682    682    681   1681   1680    680
 REORDERED NODE     :    727    726    723    722    719    718
 --------------------------------------------------------------

 ORIGINAL NODE      :    643    644    645    646    647    648
 -------------------- ------ ------ ------ ------ ------ ------
 REORDERED INDEX    :    679   1679   1678    678    677   1677
 REORDERED NODE     :    715    714    711    710    707    706
 --------------------------------------------------------------

 ORIGINAL NODE      :    649    650    651    652    653    654
 -------------------- ------ ------ ------ ------ ------ ------
 REORDERED INDEX    :   1676    676    675   1675   1674    674
 REORDERED NODE     :    703    702    699    698    695    694
 --------------------------------------------------------------

 ORIGINAL NODE      :    655    656    657    658    659    660
 -------------------- ------ ------ ------ ------ ------ ------
 REORDERED INDEX    :    673   1673   1672    672    671   1671
 REORDERED NODE     :    691    690    687    686    683    682
 --------------------------------------------------------------

 ORIGINAL NODE      :    661    662    663    664    665    666
 -------------------- ------ ------ ------ ------ ------ ------
 REORDERED INDEX    :   1670    670    669   1669   1668    668
 REORDERED NODE     :    679    678    675    674    671    670
 --------------------------------------------------------------

 ORIGINAL NODE      :    667    668    669    670    671    672
 -------------------- ------ ------ ------ ------ ------ ------
 REORDERED INDEX    :    667   1667   1666    666    665   1665
 REORDERED NODE     :    667    666    663    662    659    658
 --------------------------------------------------------------

 ORIGINAL NODE      :    673    674    675    676    677    678
 -------------------- ------ ------ ------ ------ ------ ------
 REORDERED INDEX    :   1664    664    663   1663   1662    662
 REORDERED NODE     :    655    654    651    650    647    646
 --------------------------------------------------------------

 ORIGINAL NODE      :    679    680    681    682    683    684
 -------------------- ------ ------ ------ ------ ------ ------
 REORDERED INDEX    :    661   1661   1660    660    659   1659
 REORDERED NODE     :    643    642    639    638    635    634
 --------------------------------------------------------------

 ORIGINAL NODE      :    685    686    687    688    689    690
 -------------------- ------ ------ ------ ------ ------ ------
 REORDERED INDEX    :   1658    658    657   1657   1656    656
 REORDERED NODE     :    631    630    627    626    623    622
 --------------------------------------------------------------

 ORIGINAL NODE      :    691    692    693    694    695    696
 -------------------- ------ ------ ------ ------ ------ ------
 REORDERED INDEX    :    655   1655   1654    654    653   1653
 REORDERED NODE     :    619    618    615    614    611    610
 --------------------------------------------------------------

 ORIGINAL NODE      :    697    698    699    700    701    702
 -------------------- ------ ------ ------ ------ ------ ------
 REORDERED INDEX    :   1652    652    651   1651   1650    650
 REORDERED NODE     :    607    606    603    602    599    598
 --------------------------------------------------------------

 ORIGINAL NODE      :    703    704    705    706    707    708
 -------------------- ------ ------ ------ ------ ------ ------
 REORDERED INDEX    :    649   1649   1648    648    647   1647
 REORDERED NODE     :    595    594    591    590    587    586
 --------------------------------------------------------------

 ORIGINAL NODE      :    709    710    711    712    713    714
 -------------------- ------ ------ ------ ------ ------ ------
 REORDERED INDEX    :   1646    646    645   1645   1644    644
 REORDERED NODE     :    583    582    579    578    575    574
 --------------------------------------------------------------

 ORIGINAL NODE      :    715    716    717    718    719    720
 -------------------- ------ ------ ------ ------ ------ ------
 REORDERED INDEX    :    643   1643   1642    642    641   1641
 REORDERED NODE     :    571    570    567    566    563    562
 --------------------------------------------------------------

 ORIGINAL NODE      :    721    722    723    724    725    726
 -------------------- ------ ------ ------ ------ ------ ------
 REORDERED INDEX    :   1640    640    639   1639   1638    638
 REORDERED NODE     :    559    558    555    554    551    550
 --------------------------------------------------------------

 ORIGINAL NODE      :    727    728    729    730    731    732
 -------------------- ------ ------ ------ ------ ------ ------
 REORDERED INDEX    :    637   1637   1636    636    635   1635
 REORDERED NODE     :    547    546    543    542    539    538
 --------------------------------------------------------------

 ORIGINAL NODE      :    733    734    735    736    737    738
 -------------------- ------ ------ ------ ------ ------ ------
 REORDERED INDEX    :   1634    634    633   1633   1632    632
 REORDERED NODE     :    535    534    531    530    527    526
 --------------------------------------------------------------

 ORIGINAL NODE      :    739    740    741    742    743    744
 -------------------- ------ ------ ------ ------ ------ ------
 REORDERED INDEX    :    631   1631   1630    630    629   1629
 REORDERED NODE     :    523    522    519    518    515    514
 --------------------------------------------------------------

 ORIGINAL NODE      :    745    746    747    748    749    750
 -------------------- ------ ------ ------ ------ ------ ------
 REORDERED INDEX    :   1628    628    627   1627   1626    626
 REORDERED NODE     :    511    510    507    506    503    502
 --------------------------------------------------------------

 ORIGINAL NODE      :    751    752    753    754    755    756
 -------------------- ------ ------ ------ ------ ------ ------
 REORDERED INDEX    :    625   1625   1624    624    623   1623
 REORDERED NODE     :    499    498    495    494    491    490
 --------------------------------------------------------------

 ORIGINAL NODE      :    757    758    759    760    761    762
 -------------------- ------ ------ ------ ------ ------ ------
 REORDERED INDEX    :   1622    622    621   1621   1620    620
 REORDERED NODE     :    487    486    483    482    479    478
 --------------------------------------------------------------

 ORIGINAL NODE      :    763    764    765    766    767    768
 -------------------- ------ ------ ------ ------ ------ ------
 REORDERED INDEX    :    619   1619   1618    618    617   1617
 REORDERED NODE     :    475    474    471    470    467    466
 --------------------------------------------------------------

 ORIGINAL NODE      :    769    770    771    772    773    774
 -------------------- ------ ------ ------ ------ ------ ------
 REORDERED INDEX    :   1616    616    615   1615   1614    614
 REORDERED NODE     :    463    462    459    458    455    454
 --------------------------------------------------------------

 ORIGINAL NODE      :    775    776    777    778    779    780
 -------------------- ------ ------ ------ ------ ------ ------
 REORDERED INDEX    :    613   1613   1612    612    611   1611
 REORDERED NODE     :    451    450    447    446    443    442
 --------------------------------------------------------------

 ORIGINAL NODE      :    781    782    783    784    785    786
 -------------------- ------ ------ ------ ------ ------ ------
 REORDERED INDEX    :   1610    610    609   1609   1608    608
 REORDERED NODE     :    439    438    435    434    431    430
 --------------------------------------------------------------

 ORIGINAL NODE      :    787    788    789    790    791    792
 -------------------- ------ ------ ------ ------ ------ ------
 REORDERED INDEX    :    607   1607   1606    606    605   1605
 REORDERED NODE     :    427    426    423    422    419    418
 --------------------------------------------------------------

 ORIGINAL NODE      :    793    794    795    796    797    798
 -------------------- ------ ------ ------ ------ ------ ------
 REORDERED INDEX    :   1604    604    603   1603   1602    602
 REORDERED NODE     :    415    414    411    410    407    406
 --------------------------------------------------------------

 ORIGINAL NODE      :    799    800    801    802    803    804
 -------------------- ------ ------ ------ ------ ------ ------
 REORDERED INDEX    :    601   1601   1600    600    599   1599
 REORDERED NODE     :    403    402    399    398    395    394
 --------------------------------------------------------------

 ORIGINAL NODE      :    805    806    807    808    809    810
 -------------------- ------ ------ ------ ------ ------ ------
 REORDERED INDEX    :   1598    598    597   1597   1596    596
 REORDERED NODE     :    391    390    387    386    383    382
 --------------------------------------------------------------

 ORIGINAL NODE      :    811    812    813    814    815    816
 -------------------- ------ ------ ------ ------ ------ ------
 REORDERED INDEX    :    595   1595   1594    594    593   1593
 REORDERED NODE     :    379    378    375    374    371    370
 --------------------------------------------------------------

 ORIGINAL NODE      :    817    818    819    820    821    822
 -------------------- ------ ------ ------ ------ ------ ------
 REORDERED INDEX    :   1592    592    591   1591   1590    590
 REORDERED NODE     :    367    366    363    362    359    358
 --------------------------------------------------------------

 ORIGINAL NODE      :    823    824    825    826    827    828
 -------------------- ------ ------ ------ ------ ------ ------
 REORDERED INDEX    :    589   1589   1588    588    587   1587
 REORDERED NODE     :    355    354    351    350    347    346
 --------------------------------------------------------------

 ORIGINAL NODE      :    829    830    831    832    833    834
 -------------------- ------ ------ ------ ------ ------ ------
 REORDERED INDEX    :   1586    586    585   1585   1584    584
 REORDERED NODE     :    343    342    339    338    335    334
 --------------------------------------------------------------

 ORIGINAL NODE      :    835    836    837    838    839    840
 -------------------- ------ ------ ------ ------ ------ ------
 REORDERED INDEX    :    583   1583   1582    582    581   1581
 REORDERED NODE     :    331    330    327    326    323    322
 --------------------------------------------------------------

 ORIGINAL NODE      :    841    842    843    844    845    846
 -------------------- ------ ------ ------ ------ ------ ------
 REORDERED INDEX    :   1580    580    579   1579   1578    578
 REORDERED NODE     :    319    318    315    314    311    310
 --------------------------------------------------------------

 ORIGINAL NODE      :    847    848    849    850    851    852
 -------------------- ------ ------ ------ ------ ------ ------
 REORDERED INDEX    :    577   1577   1576    576    575   1575
 REORDERED NODE     :    307    306    303    302    299    298
 --------------------------------------------------------------

 ORIGINAL NODE      :    853    854    855    856    857    858
 -------------------- ------ ------ ------ ------ ------ ------
 REORDERED INDEX    :   1574    574    573   1573   1572    572
 REORDERED NODE     :    295    294    291    290    287    286
 --------------------------------------------------------------

 ORIGINAL NODE      :    859    860    861    862    863    864
 -------------------- ------ ------ ------ ------ ------ ------
 REORDERED INDEX    :    571   1571   1570    570    569   1569
 REORDERED NODE     :    283    282    279    278    275    274
 --------------------------------------------------------------

 ORIGINAL NODE      :    865    866    867    868    869    870
 -------------------- ------ ------ ------ ------ ------ ------
 REORDERED INDEX    :   1568    568    567   1567   1566    566
 REORDERED NODE     :    271    270    267    266    263    262
 --------------------------------------------------------------

 ORIGINAL NODE      :    871    872    873    874    875    876
 -------------------- ------ ------ ------ ------ ------ ------
 REORDERED INDEX    :    565   1565   1564    564    563   1563
 REORDERED NODE     :    259    258    255    254    251    250
 --------------------------------------------------------------

 ORIGINAL NODE      :    877    878    879    880    881    882
 -------------------- ------ ------ ------ ------ ------ ------
 REORDERED INDEX    :   1562    562    561   1561   1560    560
 REORDERED NODE     :    247    246    243    242    239    238
 --------------------------------------------------------------

 ORIGINAL NODE      :    883    884    885    886    887    888
 -------------------- ------ ------ ------ ------ ------ ------
 REORDERED INDEX    :    559   1559   1558    558    557   1557
 REORDERED NODE     :    235    234    231    230    227    226
 --------------------------------------------------------------

 ORIGINAL NODE      :    889    890    891    892    893    894
 -------------------- ------ ------ ------ ------ ------ ------
 REORDERED INDEX    :   1556    556    555   1555   1554    554
 REORDERED NODE     :    223    222    219    218    215    214
 --------------------------------------------------------------

 ORIGINAL NODE      :    895    896    897    898    899    900
 -------------------- ------ ------ ------ ------ ------ ------
 REORDERED INDEX    :    553   1553   1552    552    551   1551
 REORDERED NODE     :    211    210    207    206    203    202
 --------------------------------------------------------------

 ORIGINAL NODE      :    901    902    903    904    905    906
 -------------------- ------ ------ ------ ------ ------ ------
 REORDERED INDEX    :   1550    550    549   1549   1548    548
 REORDERED NODE     :    199    198    195    194    191    190
 --------------------------------------------------------------

 ORIGINAL NODE      :    907    908    909    910    911    912
 -------------------- ------ ------ ------ ------ ------ ------
 REORDERED INDEX    :    547   1547   1546    546    545   1545
 REORDERED NODE     :    187    186    183    182    179    178
 --------------------------------------------------------------

 ORIGINAL NODE      :    913    914    915    916    917    918
 -------------------- ------ ------ ------ ------ ------ ------
 REORDERED INDEX    :   1544    544    543   1543   1542    542
 REORDERED NODE     :    175    174    171    170    167    166
 --------------------------------------------------------------

 ORIGINAL NODE      :    919    920    921    922    923    924
 -------------------- ------ ------ ------ ------ ------ ------
 REORDERED INDEX    :    541   1541   1540    540    539   1539
 REORDERED NODE     :    163    162    159    158    155    154
 --------------------------------------------------------------

 ORIGINAL NODE      :    925    926    927    928    929    930
 -------------------- ------ ------ ------ ------ ------ ------
 REORDERED INDEX    :   1538    538    537   1537   1536    536
 REORDERED NODE     :    151    150    147    146    143    142
 --------------------------------------------------------------

 ORIGINAL NODE      :    931    932    933    934    935    936
 -------------------- ------ ------ ------ ------ ------ ------
 REORDERED INDEX    :    535   1535   1534    534    533   1533
 REORDERED NODE     :    139    138    135    134    131    130
 --------------------------------------------------------------

 ORIGINAL NODE      :    937    938    939    940    941    942
 -------------------- ------ ------ ------ ------ ------ ------
 REORDERED INDEX    :   1532    532    531   1531   1530    530
 REORDERED NODE     :    127    126    123    122    119    118
 --------------------------------------------------------------

 ORIGINAL NODE      :    943    944    945    946    947    948
 -------------------- ------ ------ ------ ------ ------ ------
 REORDERED INDEX    :    529   1529   1528    528    527   1527
 REORDERED NODE     :    115    114    111    110    107    106
 --------------------------------------------------------------

 ORIGINAL NODE      :    949    950    951    952    953    954
 -------------------- ------ ------ ------ ------ ------ ------
 REORDERED INDEX    :   1526    526    525   1525   1524    524
 REORDERED NODE     :    103    102     99     98     95     94
 --------------------------------------------------------------

 ORIGINAL NODE      :    955    956    957    958    959    960
 -------------------- ------ ------ ------ ------ ------ ------
 REORDERED INDEX    :    523   1523   1522    522    521   1521
 REORDERED NODE     :     91     90     87     86     83     82
 --------------------------------------------------------------

 ORIGINAL NODE      :    961    962    963    964    965    966
 -------------------- ------ ------ ------ ------ ------ ------
 REORDERED INDEX    :   1520    520    519   1519   1518    518
 REORDERED NODE     :     79     78     75     74     71     70
 --------------------------------------------------------------

 ORIGINAL NODE      :    967    968    969    970    971    972
 -------------------- ------ ------ ------ ------ ------ ------
 REORDERED INDEX    :    517   1517   1516    516    515   1515
 REORDERED NODE     :     67     66     63     62     59     58
 --------------------------------------------------------------

 ORIGINAL NODE      :    973    974    975    976    977    978
 -------------------- ------ ------ ------ ------ ------ ------
 REORDERED INDEX    :   1514    514    513   1513   1512    512
 REORDERED NODE     :     55     54     51     50     47     46
 --------------------------------------------------------------

 ORIGINAL NODE      :    979    980    981    982    983    984
 -------------------- ------ ------ ------ ------ ------ ------
 REORDERED INDEX    :    511   1511   1510    510    509   1509
 REORDERED NODE     :     43     42     39     38     35     34
 --------------------------------------------------------------

 ORIGINAL NODE      :    985    986    987    988    989    990
 -------------------- ------ ------ ------ ------ ------ ------
 REORDERED INDEX    :   1508    508    507   1507   1506    506
 REORDERED NODE     :     31     30     27     26     23     22
 --------------------------------------------------------------

 ORIGINAL NODE      :    991    992    993    994    995    996
 -------------------- ------ ------ ------ ------ ------ ------
 REORDERED INDEX    :    505   1505   1504    504    503   1503
 REORDERED NODE     :     19     18     15     14     11     10
 --------------------------------------------------------------

 ORIGINAL NODE      :    997    998    999   1000   1001   1002
 -------------------- ------ ------ ------ ------ ------ ------
 REORDERED INDEX    :   1502    502    501   1501   1500    500
 REORDERED NODE     :      7      6      3      2   1998   1997
 --------------------------------------------------------------

 ORIGINAL NODE      :   1003   1004   1005   1006   1007   1008
 -------------------- ------ ------ ------ ------ ------ ------
 REORDERED INDEX    :    499   1499   1498    498    497   1497
 REORDERED NODE     :   1996   1993   1992   1989   1988   1985
 --------------------------------------------------------------

 ORIGINAL NODE      :   1009   1010   1011   1012   1013   1014
 -------------------- ------ ------ ------ ------ ------ ------
 REORDERED INDEX    :   1496    496    495   1495   1494    494
 REORDERED NODE     :   1984   1981   1980   1977   1976   1973
 --------------------------------------------------------------

 ORIGINAL NODE      :   1015   1016   1017   1018   1019   1020
 -------------------- ------ ------ ------ ------ ------ ------
 REORDERED INDEX    :    493   1493   1492    492    491   1491
 REORDERED NODE     :   1972   1969   1968   1965   1964   1961
 --------------------------------------------------------------

 ORIGINAL NODE      :   1021   1022   1023   1024   1025   1026
 -------------------- ------ ------ ------ ------ ------ ------
 REORDERED INDEX    :   1490    490    489   1489   1488    488
 REORDERED NODE     :   1960   1957   1956   1953   1952   1949
 --------------------------------------------------------------

 ORIGINAL NODE      :   1027   1028   1029   1030   1031   1032
 -------------------- ------ ------ ------ ------ ------ ------
 REORDERED INDEX    :    487   1487   1486    486    485   1485
 REORDERED NODE     :   1948   1945   1944   1941   1940   1937
 --------------------------------------------------------------

 ORIGINAL NODE      :   1033   1034   1035   1036   1037   1038
 -------------------- ------ ------ ------ ------ ------ ------
 REORDERED INDEX    :   1484    484    483   1483   1482    482
 REORDERED NODE     :   1936   1933   1932   1929   1928   1925
 --------------------------------------------------------------

 ORIGINAL NODE      :   1039   1040   1041   1042   1043   1044
 -------------------- ------ ------ ------ ------ ------ ------
 REORDERED INDEX    :    481   1481   1480    480    479   1479
 REORDERED NODE     :   1924   1921   1920   1917   1916   1913
 --------------------------------------------------------------

 ORIGINAL NODE      :   1045   1046   1047   1048   1049   1050
 -------------------- ------ ------ ------ ------ ------ ------
 REORDERED INDEX    :   1478    478    477   1477   1476    476
 REORDERED NODE     :   1912   1909   1908   1905   1904   1901
 --------------------------------------------------------------

 ORIGINAL NODE      :   1051   1052   1053   1054   1055   1056
 -------------------- ------ ------ ------ ------ ------ ------
 REORDERED INDEX    :    475   1475   1474    474    473   1473
 REORDERED NODE     :   1900   1897   1896   1893   1892   1889
 --------------------------------------------------------------

 ORIGINAL NODE      :   1057   1058   1059   1060   1061   1062
 -------------------- ------ ------ ------ ------ ------ ------
 REORDERED INDEX    :   1472    472    471   1471   1470    470
 REORDERED NODE     :   1888   1885   1884   1881   1880   1877
 --------------------------------------------------------------

 ORIGINAL NODE      :   1063   1064   1065   1066   1067   1068
 -------------------- ------ ------ ------ ------ ------ ------
 REORDERED INDEX    :    469   1469   1468    468    467   1467
 REORDERED NODE     :   1876   1873   1872   1869   1868   1865
 --------------------------------------------------------------

 ORIGINAL NODE      :   1069   1070   1071   1072   1073   1074
 -------------------- ------ ------ ------ ------ ------ ------
 REORDERED INDEX    :   1466    466    465   1465   1464    464
 REORDERED NODE     :   1864   1861   1860   1857   1856   1853
 --------------------------------------------------------------

 ORIGINAL NODE      :   1075   1076   1077   1078   1079   1080
 -------------------- ------ ------ ------ ------ ------ ------
 REORDERED INDEX    :    463   1463   1462    462    461   1461
 REORDERED NODE     :   1852   1849   1848   1845   1844   1841
 --------------------------------------------------------------

 ORIGINAL NODE      :   1081   1082   1083   1084   1085   1086
 -------------------- ------ ------ ------ ------ ------ ------
 REORDERED INDEX    :   1460    460    459   1459   1458    458
 REORDERED NODE     :   1840   1837   1836   1833   1832   1829
 --------------------------------------------------------------

 ORIGINAL NODE      :   1087   1088   1089   1090   1091   1092
 -------------------- ------ ------ ------ ------ ------ ------
 REORDERED INDEX    :    457   1457   1456    456    455   1455
 REORDERED NODE     :   1828   1825   1824   1821   1820   1817
 --------------------------------------------------------------

 ORIGINAL NODE      :   1093   1094   1095   1096   1097   1098
 -------------------- ------ ------ ------ ------ ------ ------
 REORDERED INDEX    :   1454    454    453   1453   1452    452
 REORDERED NODE     :   1816   1813   1812   1809   1808   1805
 --------------------------------------------------------------

 ORIGINAL NODE      :   1099   1100   1101   1102   1103   1104
 -------------------- ------ ------ ------ ------ ------ ------
 REORDERED INDEX    :    451   1451   1450    450    449   1449
 REORDERED NODE     :   1804   1801   1800   1797   1796   1793
 --------------------------------------------------------------

 ORIGINAL NODE      :   1105   1106   1107   1108   1109   1110
 -------------------- ------ ------ ------ ------ ------ ------
 REORDERED INDEX    :   1448    448    447   1447   1446    446
 REORDERED NODE     :   1792   1789   1788   1785   1784   1781
 --------------------------------------------------------------

 ORIGINAL NODE      :   1111   1112   1113   1114   1115   1116
 -------------------- ------ ------ ------ ------ ------ ------
 REORDERED INDEX    :    445   1445   1444    444    443   1443
 REORDERED NODE     :   1780   1777   1776   1773   1772   1769
 --------------------------------------------------------------

 ORIGINAL NODE      :   1117   1118   1119   1120   1121   1122
 -------------------- ------ ------ ------ ------ ------ ------
 REORDERED INDEX    :   1442    442    441   1441   1440    440
 REORDERED NODE     :   1768   1765   1764   1761   1760   1757
 --------------------------------------------------------------

 ORIGINAL NODE      :   1123   1124   1125   1126   1127   1128
 -------------------- ------ ------ ------ ------ ------ ------
 REORDERED INDEX    :    439   1439   1438    438    437   1437
 REORDERED NODE     :   1756   1753   1752   1749   1748   1745
 --------------------------------------------------------------

 ORIGINAL NODE      :   1129   1130   1131   1132   1133   1134
 -------------------- ------ ------ ------ ------ ------ ------
 REORDERED INDEX    :   1436    436    435   1435   1434    434
 REORDERED NODE     :   1744   1741   1740   1737   1736   1733
 --------------------------------------------------------------

 ORIGINAL NODE      :   1135   1136   1137   1138   1139   1140
 -------------------- ------ ------ ------ ------ ------ ------
 REORDERED INDEX    :    433   1433   1432    432    431   1431
 REORDERED NODE     :   1732   1729   1728   1725   1724   1721
 --------------------------------------------------------------

 ORIGINAL NODE      :   1141   1142   1143   1144   1145   1146
 -------------------- ------ ------ ------ ------ ------ ------
 REORDERED INDEX    :   1430    430    429   1429   1428    428
 REORDERED NODE     :   1720   1717   1716   1713   1712   1709
 --------------------------------------------------------------

 ORIGINAL NODE      :   1147   1148   1149   1150   1151   1152
 -------------------- ------ ------ ------ ------ ------ ------
 REORDERED INDEX    :    427   1427   1426    426    425   1425
 REORDERED NODE     :   1708   1705   1704   1701   1700   1697
 --------------------------------------------------------------

 ORIGINAL NODE      :   1153   1154   1155   1156   1157   1158
 -------------------- ------ ------ ------ ------ ------ ------
 REORDERED INDEX    :   1424    424    423   1423   1422    422
 REORDERED NODE     :   1696   1693   1692   1689   1688   1685
 --------------------------------------------------------------

 ORIGINAL NODE      :   1159   1160   1161   1162   1163   1164
 -------------------- ------ ------ ------ ------ ------ ------
 REORDERED INDEX    :    421   1421   1420    420    419   1419
 REORDERED NODE     :   1684   1681   1680   1677   1676   1673
 --------------------------------------------------------------

 ORIGINAL NODE      :   1165   1166   1167   1168   1169   1170
 -------------------- ------ ------ ------ ------ ------ ------
 REORDERED INDEX    :   1418    418    417   1417   1416    416
 REORDERED NODE     :   1672   1669   1668   1665   1664   1661
 --------------------------------------------------------------

 ORIGINAL NODE      :   1171   1172   1173   1174   1175   1176
 -------------------- ------ ------ ------ ------ ------ ------
 REORDERED INDEX    :    415   1415   1414    414    413   1413
 REORDERED NODE     :   1660   1657   1656   1653   1652   1649
 --------------------------------------------------------------

 ORIGINAL NODE      :   1177   1178   1179   1180   1181   1182
 -------------------- ------ ------ ------ ------ ------ ------
 REORDERED INDEX    :   1412    412    411   1411   1410    410
 REORDERED NODE     :   1648   1645   1644   1641   1640   1637
 --------------------------------------------------------------

 ORIGINAL NODE      :   1183   1184   1185   1186   1187   1188
 -------------------- ------ ------ ------ ------ ------ ------
 REORDERED INDEX    :    409   1409   1408    408    407   1407
 REORDERED NODE     :   1636   1633   1632   1629   1628   1625
 --------------------------------------------------------------

 ORIGINAL NODE      :   1189   1190   1191   1192   1193   1194
 -------------------- ------ ------ ------ ------ ------ ------
 REORDERED INDEX    :   1406    406    405   1405   1404    404
 REORDERED NODE     :   1624   1621   1620   1617   1616   1613
 --------------------------------------------------------------

 ORIGINAL NODE      :   1195   1196   1197   1198   1199   1200
 -------------------- ------ ------ ------ ------ ------ ------
 REORDERED INDEX    :    403   1403   1402    402    401   1401
 REORDERED NODE     :   1612   1609   1608   1605   1604   1601
 --------------------------------------------------------------

 ORIGINAL NODE      :   1201   1202   1203   1204   1205   1206
 -------------------- ------ ------ ------ ------ ------ ------
 REORDERED INDEX    :   1400    400    399   1399   1398    398
 REORDERED NODE     :   1600   1597   1596   1593   1592   1589
 --------------------------------------------------------------

 ORIGINAL NODE      :   1207   1208   1209   1210   1211   1212
 -------------------- ------ ------ ------ ------ ------ ------
 REORDERED INDEX    :    397   1397   1396    396    395   1395
 REORDERED NODE     :   1588   1585   1584   1581   1580   1577
 --------------------------------------------------------------

 ORIGINAL NODE      :   1213   1214   1215   1216   1217   1218
 -------------------- ------ ------ ------ ------ ------ ------
 REORDERED INDEX    :   1394    394    393   1393   1392    392
 REORDERED NODE     :   1576   1573   1572   1569   1568   1565
 --------------------------------------------------------------

 ORIGINAL NODE      :   1219   1220   1221   1222   1223   1224
 -------------------- ------ ------ ------ ------ ------ ------
 REORDERED INDEX    :    391   1391   1390    390    389   1389
 REORDERED NODE     :   1564   1561   1560   1557   1556   1553
 --------------------------------------------------------------

 ORIGINAL NODE      :   1225   1226   1227   1228   1229   1230
 -------------------- ------ ------ ------ ------ ------ ------
 REORDERED INDEX    :   1388    388    387   1387   1386    386
 REORDERED NODE     :   1552   1549   1548   1545   1544   1541
 --------------------------------------------------------------

 ORIGINAL NODE      :   1231   1232   1233   1234   1235   1236
 -------------------- ------ ------ ------ ------ ------ ------
 REORDERED INDEX    :    385   1385   1384    384    383   1383
 REORDERED NODE     :   1540   1537   1536   1533   1532   1529
 --------------------------------------------------------------

 ORIGINAL NODE      :   1237   1238   1239   1240   1241   1242
 -------------------- ------ ------ ------ ------ ------ ------
 REORDERED INDEX    :   1382    382    381   1381   1380    380
 REORDERED NODE     :   1528   1525   1524   1521   1520   1517
 --------------------------------------------------------------

 ORIGINAL NODE      :   1243   1244   1245   1246   1247   1248
 -------------------- ------ ------ ------ ------ ------ ------
 REORDERED INDEX    :    379   1379   1378    378    377   1377
 REORDERED NODE     :   1516   1513   1512   1509   1508   1505
 --------------------------------------------------------------

 ORIGINAL NODE      :   1249   1250   1251   1252   1253   1254
 -------------------- ------ ------ ------ ------ ------ ------
 REORDERED INDEX    :   1376    376    375   1375   1374    374
 REORDERED NODE     :   1504   1501   1500   1497   1496   1493
 --------------------------------------------------------------

 ORIGINAL NODE      :   1255   1256   1257   1258   1259   1260
 -------------------- ------ ------ ------ ------ ------ ------
 REORDERED INDEX    :    373   1373   1372    372    371   1371
 REORDERED NODE     :   1492   1489   1488   1485   1484   1481
 --------------------------------------------------------------

 ORIGINAL NODE      :   1261   1262   1263   1264   1265   1266
 -------------------- ------ ------ ------ ------ ------ ------
 REORDERED INDEX    :   1370    370    369   1369   1368    368
 REORDERED NODE     :   1480   1477   1476   1473   1472   1469
 --------------------------------------------------------------

 ORIGINAL NODE      :   1267   1268   1269   1270   1271   1272
 -------------------- ------ ------ ------ ------ ------ ------
 REORDERED INDEX    :    367   1367   1366    366    365   1365
 REORDERED NODE     :   1468   1465   1464   1461   1460   1457
 --------------------------------------------------------------

 ORIGINAL NODE      :   1273   1274   1275   1276   1277   1278
 -------------------- ------ ------ ------ ------ ------ ------
 REORDERED INDEX    :   1364    364    363   1363   1362    362
 REORDERED NODE     :   1456   1453   1452   1449   1448   1445
 --------------------------------------------------------------

 ORIGINAL NODE      :   1279   1280   1281   1282   1283   1284
 -------------------- ------ ------ ------ ------ ------ ------
 REORDERED INDEX    :    361   1361   1360    360    359   1359
 REORDERED NODE     :   1444   1441   1440   1437   1436   1433
 --------------------------------------------------------------

 ORIGINAL NODE      :   1285   1286   1287   1288   1289   1290
 -------------------- ------ ------ ------ ------ ------ ------
 REORDERED INDEX    :   1358    358    357   1357   1356    356
 REORDERED NODE     :   1432   1429   1428   1425   1424   1421
 --------------------------------------------------------------

 ORIGINAL NODE      :   1291   1292   1293   1294   1295   1296
 -------------------- ------ ------ ------ ------ ------ ------
 REORDERED INDEX    :    355   1355   1354    354    353   1353
 REORDERED NODE     :   1420   1417   1416   1413   1412   1409
 --------------------------------------------------------------

 ORIGINAL NODE      :   1297   1298   1299   1300   1301   1302
 -------------------- ------ ------ ------ ------ ------ ------
 REORDERED INDEX    :   1352    352    351   1351   1350    350
 REORDERED NODE     :   1408   1405   1404   1401   1400   1397
 --------------------------------------------------------------

 ORIGINAL NODE      :   1303   1304   1305   1306   1307   1308
 -------------------- ------ ------ ------ ------ ------ ------
 REORDERED INDEX    :    349   1349   1348    348    347   1347
 REORDERED NODE     :   1396   1393   1392   1389   1388   1385
 --------------------------------------------------------------

 ORIGINAL NODE      :   1309   1310   1311   1312   1313   1314
 -------------------- ------ ------ ------ ------ ------ ------
 REORDERED INDEX    :   1346    346    345   1345   1344    344
 REORDERED NODE     :   1384   1381   1380   1377   1376   1373
 --------------------------------------------------------------

 ORIGINAL NODE      :   1315   1316   1317   1318   1319   1320
 -------------------- ------ ------ ------ ------ ------ ------
 REORDERED INDEX    :    343   1343   1342    342    341   1341
 REORDERED NODE     :   1372   1369   1368   1365   1364   1361
 --------------------------------------------------------------

 ORIGINAL NODE      :   1321   1322   1323   1324   1325   1326
 -------------------- ------ ------ ------ ------ ------ ------
 REORDERED INDEX    :   1340    340    339   1339   1338    338
 REORDERED NODE     :   1360   1357   1356   1353   1352   1349
 --------------------------------------------------------------

 ORIGINAL NODE      :   1327   1328   1329   1330   1331   1332
 -------------------- ------ ------ ------ ------ ------ ------
 REORDERED INDEX    :    337   1337   1336    336    335   1335
 REORDERED NODE     :   1348   1345   1344   1341   1340   1337
 --------------------------------------------------------------

 ORIGINAL NODE      :   1333   1334   1335   1336   1337   1338
 -------------------- ------ ------ ------ ------ ------ ------
 REORDERED INDEX    :   1334    334    333   1333   1332    332
 REORDERED NODE     :   1336   1333   1332   1329   1328   1325
 --------------------------------------------------------------

 ORIGINAL NODE      :   1339   1340   1341   1342   1343   1344
 -------------------- ------ ------ ------ ------ ------ ------
 REORDERED INDEX    :    331   1331   1330    330    329   1329
 REORDERED NODE     :   1324   1321   1320   1317   1316   1313
 --------------------------------------------------------------

 ORIGINAL NODE      :   1345   1346   1347   1348   1349   1350
 -------------------- ------ ------ ------ ------ ------ ------
 REORDERED INDEX    :   1328    328    327   1327   1326    326
 REORDERED NODE     :   1312   1309   1308   1305   1304   1301
 --------------------------------------------------------------

 ORIGINAL NODE      :   1351   1352   1353   1354   1355   1356
 -------------------- ------ ------ ------ ------ ------ ------
 REORDERED INDEX    :    325   1325   1324    324    323   1323
 REORDERED NODE     :   1300   1297   1296   1293   1292   1289
 --------------------------------------------------------------

 ORIGINAL NODE      :   1357   1358   1359   1360   1361   1362
 -------------------- ------ ------ ------ ------ ------ ------
 REORDERED INDEX    :   1322    322    321   1321   1320    320
 REORDERED NODE     :   1288   1285   1284   1281   1280   1277
 --------------------------------------------------------------

 ORIGINAL NODE      :   1363   1364   1365   1366   1367   1368
 -------------------- ------ ------ ------ ------ ------ ------
 REORDERED INDEX    :    319   1319   1318    318    317   1317
 REORDERED NODE     :   1276   1273   1272   1269   1268   1265
 --------------------------------------------------------------

 ORIGINAL NODE      :   1369   1370   1371   1372   1373   1374
 -------------------- ------ ------ ------ ------ ------ ------
 REORDERED INDEX    :   1316    316    315   1315   1314    314
 REORDERED NODE     :   1264   1261   1260   1257   1256   1253
 --------------------------------------------------------------

 ORIGINAL NODE      :   1375   1376   1377   1378   1379   1380
 -------------------- ------ ------ ------ ------ ------ ------
 REORDERED INDEX    :    313   1313   1312    312    311   1311
 REORDERED NODE     :   1252   1249   1248   1245   1244   1241
 --------------------------------------------------------------

 ORIGINAL NODE      :   1381   1382   1383   1384   1385   1386
 -------------------- ------ ------ ------ ------ ------ ------
 REORDERED INDEX    :   1310    310    309   1309   1308    308
 REORDERED NODE     :   1240   1237   1236   1233   1232   1229
 --------------------------------------------------------------

 ORIGINAL NODE      :   1387   1388   1389   1390   1391   1392
 -------------------- ------ ------ ------ ------ ------ ------
 REORDERED INDEX    :    307   1307   1306    306    305   1305
 REORDERED NODE     :   1228   1225   1224   1221   1220   1217
 --------------------------------------------------------------

 ORIGINAL NODE      :   1393   1394   1395   1396   1397   1398
 -------------------- ------ ------ ------ ------ ------ ------
 REORDERED INDEX    :   1304    304    303   1303   1302    302
 REORDERED NODE     :   1216   1213   1212   1209   1208   1205
 --------------------------------------------------------------

[...]
       1288       211        10                  1_GWF-(2,1,1000) -0.4944011E-05                   1_GWF-(2,1,205) -0.1578975E-11
       1289       211        11                  1_GWF-(2,1,1000)  0.2155884E-05                    1_GWF-(2,1,31) -0.1348864E-11
       1290       211        12                  1_GWF-(2,1,1000)  0.4509988E-07                    1_GWF-(2,1,39) -0.1592684E-11
       1291       211        13                  1_GWF-(2,1,1000)  0.3434252E-06                   1_GWF-(2,1,997)  0.7922635E-12
       1292       211        14                  1_GWF-(2,1,1000) -0.6911580E-09                    1_GWF-(2,1,29) -0.3688354E-12
       1293       211        15                  1_GWF-(2,1,1000)  0.8638229E-07                    1_GWF-(2,1,77)  0.5261414E-13
       1294       211        16                  1_GWF-(2,1,1000) -0.2640537E-07                   1_GWF-(2,1,201)  0.2324129E-13
       1295       211        17                  1_GWF-(2,1,1000) -0.1227640E-09                   1_GWF-(2,1,201)  0.2318557E-13
       1296       211        18                  1_GWF-(2,1,1000) -0.1215766E-09                   1_GWF-(2,1,199)  0.2306888E-13
       1297       211        19                  1_GWF-(2,1,1000)  0.9166308E-09                   1_GWF-(2,1,193)  0.2281693E-13
       1298       211        20                  1_GWF-(2,1,1000)  0.3082093E-08                  1_GWF-(2,1,1000)  0.2547408E-13
       1299       211        21                  1_GWF-(2,1,1000) -0.2532602E-08                   1_GWF-(2,1,177)  0.2256440E-13
       1300       211        22                  1_GWF-(2,1,1000) -0.5283779E-09                  1_GWF-(2,1,1000)  0.4160260E-13
       1301       211        23                  1_GWF-(2,1,1000)  0.8631419E-10                  1_GWF-(2,1,1000)  0.4200585E-13
       1302       211        24                  1_GWF-(2,1,1000)  0.6819473E-08                  1_GWF-(2,1,1000)  0.8366968E-13
       1303       211        25                  1_GWF-(2,1,1000) -0.6490065E-08                  1_GWF-(2,1,1000)  0.4414743E-13
       1304       211        26                  1_GWF-(2,1,1000) -0.3569585E-08                  1_GWF-(1,1,1000) -0.3203819E-13
       1305       211        27                  1_GWF-(2,1,1000)  0.4413882E-08                  1_GWF-(2,1,1000)  0.4949885E-13
       1306       211        28                  1_GWF-(2,1,1000)  0.5033811E-08                  1_GWF-(2,1,1000)  0.7258078E-13
       1307       211        29                  1_GWF-(2,1,1000) -0.4341662E-08                  1_GWF-(2,1,1000)  0.4631606E-13
       1308       211        30                  1_GWF-(2,1,1000) -0.5542996E-09                   1_GWF-(2,1,175)  0.2306387E-13
       1309       211        31                  1_GWF-(2,1,1000)  0.1461743E-08                  1_GWF-(2,1,1000)  0.2507542E-13
       1310       211        32                  1_GWF-(2,1,1000) -0.6171281E-08                  1_GWF-(1,1,1000) -0.2845282E-13
       1311       211        33                  1_GWF-(2,1,1000)  0.8566294E-08                  1_GWF-(2,1,1000)  0.6269501E-13
       1312       211        34                  1_GWF-(2,1,1000)  0.5257908E-08                  1_GWF-(2,1,1000)  0.8021502E-13
       1313       211        35                  1_GWF-(2,1,1000) -0.3454444E-08                  1_GWF-(2,1,1000)  0.5540444E-13
       1314       211        36                  1_GWF-(2,1,1000)  0.2927484E-08                  1_GWF-(2,1,1000)  0.1174687E-12
       1315       211        37                  1_GWF-(2,1,1000) -0.1128217E-08                  1_GWF-(2,1,1000)  0.1057378E-12
       1316       211        38                  1_GWF-(2,1,1000) -0.1649780E-08                  1_GWF-(2,1,1000)  0.5858672E-13
       1317       211        39                  1_GWF-(2,1,1000)  0.2934707E-08                  1_GWF-(2,1,1000)  0.8307700E-13
       1318       211        40                  1_GWF-(2,1,1000)  0.4181777E-08                  1_GWF-(2,1,1000)  0.1317277E-12
       1319       211        41                  1_GWF-(2,1,1000) -0.2523991E-08                  1_GWF-(2,1,1000)  0.1068571E-12
       1320       211        42                  1_GWF-(2,1,1000) -0.7592604E-09                  1_GWF-(2,1,1000)  0.1197824E-12
       1321       211        43                  1_GWF-(2,1,1000)  0.2972794E-08                  1_GWF-(2,1,1000)  0.1329915E-12
       1322       211        44                  1_GWF-(2,1,1000) -0.4318945E-08                  1_GWF-(2,1,1000)  0.1117493E-12
       1323       211        45                  1_GWF-(2,1,1000)  0.9794786E-08                  1_GWF-(2,1,1000)  0.1396310E-12
       1324       211        46                  1_GWF-(2,1,1000) -0.6494214E-09                  1_GWF-(2,1,1000)  0.1479199E-12
       1325       211        47                  1_GWF-(2,1,1000) -0.5874596E-08                  1_GWF-(2,1,1000)  0.1318814E-12
       1326       211        48                  1_GWF-(2,1,1000)  0.2974462E-08                  1_GWF-(2,1,1000)  0.1249716E-12
       1327       211        49                  1_GWF-(2,1,1000)  0.1467816E-06                   1_GWF-(2,1,115)  0.1226081E-12
       1328       211        50                  1_GWF-(2,1,1000) -0.2359237E-06                   1_GWF-(2,1,141) -0.2037104E-13
       1329       211        51                  1_GWF-(2,1,1000)  0.3231670E-07                  1_GWF-(2,1,1000)  0.2355212E-13
       1330       211        52                  1_GWF-(2,1,1000)  0.4499037E-07                  1_GWF-(2,1,1000)  0.3403326E-13
       1331       211        53                  1_GWF-(2,1,1000) -0.4727886E-07                  1_GWF-(2,1,1000)  0.1367186E-13
       1332       211        54                  1_GWF-(2,1,1000) -0.3579924E-09                  1_GWF-(1,1,1000) -0.3880853E-13
       1333       211        55                  1_GWF-(2,1,1000)  0.3599127E-12                  1_GWF-(1,1,1000) -0.3878544E-13
       1334       212         1                  1_GWF-(2,1,1000)  0.2472153E-04                    1_GWF-(2,1,53) -0.5135230E-10
       1335       212         2                  1_GWF-(2,1,1000)  0.1802162E-04                   1_GWF-(2,1,991) -0.2075867E-10
       1336       212         3                  1_GWF-(2,1,1000)  0.1444724E-04                   1_GWF-(2,1,995) -0.6094172E-11
       1337       212         4                  1_GWF-(2,1,1000)  0.7211630E-07                   1_GWF-(2,1,990) -0.4018102E-11
       1338       212         5                  1_GWF-(2,1,1000)  0.8553247E-05                   1_GWF-(2,1,237)  0.1116029E-11
       1339       212         6                  1_GWF-(2,1,1000)  0.7924761E-06                   1_GWF-(2,1,201)  0.9120285E-12
       1340       212         7                  1_GWF-(2,1,1000)  0.1541571E-05                   1_GWF-(2,1,205)  0.8049582E-12
       1341       212         8                  1_GWF-(2,1,1000)  0.1380948E-06                   1_GWF-(2,1,167)  0.5786486E-12
       1342       212         9                  1_GWF-(2,1,1000)  0.9724820E-06                   1_GWF-(2,1,197) -0.3630556E-12
       1343       212        10                  1_GWF-(2,1,1000) -0.9843937E-06                    1_GWF-(2,1,27) -0.1391756E-12
       1344       212        11                  1_GWF-(2,1,1000)  0.2617136E-06                   1_GWF-(2,1,237) -0.3488844E-13
       1345       212        12                  1_GWF-(2,1,1000)  0.4145905E-09                   1_GWF-(2,1,237) -0.3439168E-13
       1346       212        13                  1_GWF-(2,1,1000)  0.9693224E-10                   1_GWF-(2,1,237) -0.3478969E-13
       1347       212        14                  1_GWF-(2,1,1000)  0.4780102E-09                  1_GWF-(2,1,1000) -0.3526537E-13
       1348       212        15                  1_GWF-(2,1,1000) -0.1328941E-08                  1_GWF-(1,1,1000) -0.8670528E-13
       1349       212        16                  1_GWF-(2,1,1000)  0.1449031E-08                   1_GWF-(2,1,241) -0.5345787E-13
       1350       212        17                  1_GWF-(2,1,1000) -0.2636223E-09                   1_GWF-(2,1,241) -0.4678577E-13
       1351       212        18                  1_GWF-(2,1,1000)  0.2575028E-08                   1_GWF-(2,1,239) -0.6518787E-13
       1352       212        19                  1_GWF-(2,1,1000) -0.4562095E-08                  1_GWF-(2,1,1000) -0.5320784E-13
       1353       212        20                  1_GWF-(2,1,1000) -0.5055558E-10                  1_GWF-(2,1,1000) -0.5156699E-13
       1354       212        21                  1_GWF-(2,1,1000)  0.1145791E-09                  1_GWF-(2,1,1000) -0.5348956E-13
       1355       212        22                  1_GWF-(2,1,1000)  0.2271132E-09                  1_GWF-(2,1,1000) -0.4485946E-13
       1356       212        23                  1_GWF-(2,1,1000)  0.1053144E-09                  1_GWF-(2,1,1000) -0.4405585E-13
       1357       213         1                  1_GWF-(2,1,1000) -0.1224368E-06                   1_GWF-(1,1,486)  0.2563252E-11
       1358       213         2                  1_GWF-(2,1,1000) -0.5329848E-06                   1_GWF-(2,1,988) -0.2658903E-12
       1359       213         3                  1_GWF-(2,1,1000)  0.1238697E-06                   1_GWF-(2,1,411) -0.1362086E-12
       1360       213         4                  1_GWF-(2,1,1000)  0.7917735E-08                   1_GWF-(2,1,403) -0.1410797E-12
       1361       213         5                  1_GWF-(2,1,1000)  0.1099231E-06                   1_GWF-(2,1,992) -0.9399273E-13
       1362       213         6                  1_GWF-(2,1,1000)  0.1401729E-06                   1_GWF-(2,1,992) -0.5597974E-13
       1363       213         7                  1_GWF-(2,1,1000)  0.1299147E-06                   1_GWF-(2,1,297) -0.8156971E-13
       1364       213         8                  1_GWF-(2,1,1000)  0.3741443E-07                   1_GWF-(2,1,281) -0.8213176E-13
       1365       213         9                  1_GWF-(2,1,1000)  0.2107138E-07                   1_GWF-(2,1,267) -0.7745439E-13
       1366       213        10                  1_GWF-(2,1,1000)  0.1503158E-07                   1_GWF-(2,1,249) -0.7206222E-13
       1367       213        11                  1_GWF-(2,1,1000)  0.1163476E-07                   1_GWF-(2,1,229) -0.6776429E-13
       1368       213        12                  1_GWF-(2,1,1000)  0.9187363E-08                   1_GWF-(2,1,209) -0.6549592E-13
       1369       213        13                  1_GWF-(2,1,1000)  0.7506627E-08                   1_GWF-(2,1,185) -0.6553242E-13
       1370       213        14                  1_GWF-(2,1,1000)  0.5621165E-08                   1_GWF-(2,1,163) -0.6724863E-13
       1371       213        15                  1_GWF-(2,1,1000)  0.2994568E-08                   1_GWF-(2,1,143) -0.6855780E-13
       1372       213        16                  1_GWF-(2,1,1000)  0.6479908E-09                   1_GWF-(2,1,127) -0.6807045E-13
       1373       213        17                  1_GWF-(2,1,1000) -0.7129738E-09                   1_GWF-(2,1,111) -0.6609252E-13
       1374       213        18                  1_GWF-(2,1,1000) -0.1353319E-08                    1_GWF-(2,1,97) -0.6328050E-13
       1375       213        19                  1_GWF-(2,1,1000) -0.1548939E-08                    1_GWF-(2,1,83) -0.6019462E-13
       1376       213        20                  1_GWF-(2,1,1000) -0.1484198E-08                    1_GWF-(2,1,69) -0.5721070E-13
       1377       213        21                  1_GWF-(2,1,1000) -0.1332231E-08                    1_GWF-(2,1,57) -0.5454911E-13
       1378       213        22                  1_GWF-(2,1,1000) -0.1156337E-08                    1_GWF-(2,1,43) -0.5236341E-13
       1379       213        23                  1_GWF-(2,1,1000) -0.9697858E-09                    1_GWF-(2,1,37) -0.5046793E-13
       1380       213        24                  1_GWF-(2,1,1000) -0.7854740E-09                    1_GWF-(2,1,31) -0.4861018E-13
       1381       213        25                  1_GWF-(2,1,1000) -0.6553199E-09                    1_GWF-(2,1,29) -0.4679080E-13
       1382       213        26                  1_GWF-(2,1,1000) -0.5761349E-09                    1_GWF-(2,1,29) -0.4493678E-13
       1383       213        27                  1_GWF-(2,1,1000) -0.4831871E-09                    1_GWF-(2,1,29) -0.4313725E-13
       1384       213        28                  1_GWF-(2,1,1000) -0.3982629E-09                    1_GWF-(2,1,29) -0.4148133E-13
       1385       213        29                  1_GWF-(2,1,1000) -0.3389973E-09                    1_GWF-(2,1,29) -0.3995107E-13
       1386       213        30                  1_GWF-(2,1,1000) -0.2754531E-09                    1_GWF-(2,1,29) -0.3862543E-13
       1387       213        31                  1_GWF-(2,1,1000) -0.2414662E-09                    1_GWF-(2,1,29) -0.3740700E-13
       1388       213        32                  1_GWF-(2,1,1000) -0.2328601E-09                    1_GWF-(2,1,29) -0.3618688E-13
       1389       213        33                  1_GWF-(2,1,1000) -0.2060261E-09                    1_GWF-(2,1,29) -0.3507065E-13
       1390       213        34                  1_GWF-(2,1,1000) -0.1809591E-09                    1_GWF-(2,1,29) -0.3406221E-13
       1391       213        35                  1_GWF-(2,1,1000) -0.1612240E-09                    1_GWF-(2,1,29) -0.3314228E-13
       1392       213        36                  1_GWF-(2,1,1000) -0.1423101E-09                    1_GWF-(2,1,29) -0.3231413E-13
       1393       213        37                  1_GWF-(2,1,1000) -0.1287953E-09                    1_GWF-(2,1,29) -0.3155210E-13
       1394       213        38                  1_GWF-(2,1,1000) -0.1208869E-09                    1_GWF-(2,1,29) -0.3082620E-13
       1395       213        39                  1_GWF-(2,1,1000) -0.1102764E-09                    1_GWF-(2,1,29) -0.3015536E-13
       1396       213        40                  1_GWF-(2,1,1000) -0.1011778E-09                  1_GWF-(1,1,1000)  0.4333423E-13
       1397       213        41                  1_GWF-(2,1,1000) -0.9307790E-10                  1_GWF-(1,1,1000)  0.4030318E-13
       1398       213        42                  1_GWF-(2,1,1000) -0.8574311E-10                  1_GWF-(1,1,1000)  0.4370082E-13
       1399       213        43                  1_GWF-(2,1,1000) -0.7957088E-10                  1_GWF-(1,1,1000)  0.4100610E-13
       1400       213        44                  1_GWF-(2,1,1000) -0.7694816E-10                  1_GWF-(2,1,1000) -0.3595665E-13
       1401       213        45                  1_GWF-(2,1,1000) -0.7158513E-10                  1_GWF-(2,1,1000) -0.3391835E-13
       1402       213        46                  1_GWF-(2,1,1000) -0.6093694E-10                    1_GWF-(2,1,27) -0.2664397E-13
       1403       213        47                  1_GWF-(2,1,1000) -0.5764031E-10                    1_GWF-(2,1,27) -0.2627757E-13
       1404       213        48                  1_GWF-(2,1,1000) -0.5733644E-10                    1_GWF-(2,1,27) -0.2591114E-13
       1405       213        49                  1_GWF-(2,1,1000) -0.5418856E-10                    1_GWF-(2,1,27) -0.2556330E-13
       1406       213        50                  1_GWF-(2,1,1000) -0.5252577E-10                    1_GWF-(2,1,27) -0.2522485E-13
       1407       213        51                  1_GWF-(2,1,1000) -0.4973617E-10                    1_GWF-(2,1,27) -0.2490298E-13
       1408       213        52                  1_GWF-(2,1,1000) -0.4412651E-10                  1_GWF-(1,1,1000) -0.3710079E-13
       1409       213        53                  1_GWF-(2,1,1000) -0.4208914E-10                  1_GWF-(1,1,1000) -0.3575824E-13
       1410       213        54                  1_GWF-(2,1,1000) -0.4084828E-10                    1_GWF-(2,1,27) -0.2407499E-13
       1411       213        55                  1_GWF-(2,1,1000) -0.3916170E-10                    1_GWF-(2,1,27) -0.2381829E-13
       1412       213        56                  1_GWF-(2,1,1000) -0.3853890E-10                  1_GWF-(2,1,1000) -0.3699624E-13
       1413       213        57                  1_GWF-(2,1,1000) -0.3699404E-10                  1_GWF-(2,1,1000) -0.3578585E-13
       1414       213        58                  1_GWF-(2,1,1000) -0.3692029E-10                  1_GWF-(1,1,1000) -0.3729211E-13
       1415       213        59                  1_GWF-(2,1,1000) -0.3544802E-10                  1_GWF-(1,1,1000) -0.3611112E-13
       1416       213        60                  1_GWF-(2,1,1000) -0.3196185E-10                    1_GWF-(2,1,27) -0.2262936E-13
       1417       213        61                  1_GWF-(2,1,1000) -0.3048517E-10                    1_GWF-(2,1,27) -0.2242651E-13
       1418       213        62                  1_GWF-(2,1,1000) -0.2865631E-10                  1_GWF-(2,1,1000) -0.3739611E-13
       1419       213        63                  1_GWF-(2,1,1000) -0.2738301E-10                  1_GWF-(2,1,1000) -0.3639713E-13
       1420       213        64                  1_GWF-(2,1,1000) -0.2688968E-10                  1_GWF-(2,1,1000) -0.3733915E-13
       1421       213        65                  1_GWF-(2,1,1000) -0.2607940E-10                  1_GWF-(2,1,1000) -0.3642740E-13
       1422       213        66                  1_GWF-(2,1,1000) -0.2483415E-10                  1_GWF-(2,1,1000) -0.3738518E-13
       1423       213        67                  1_GWF-(2,1,1000) -0.2385279E-10                  1_GWF-(2,1,1000) -0.3654624E-13
       1424       213        68                  1_GWF-(2,1,1000) -0.2385347E-10                  1_GWF-(2,1,1000) -0.3740678E-13
       1425       213        69                  1_GWF-(2,1,1000) -0.2340965E-10                  1_GWF-(2,1,1000) -0.3658202E-13
       1426       213        70                  1_GWF-(2,1,1000) -0.2247519E-10                  1_GWF-(2,1,1000) -0.6547827E-13
       1427       213        71                  1_GWF-(2,1,1000) -0.2181482E-10                  1_GWF-(2,1,1000) -0.6400371E-13
       1428       213        72                  1_GWF-(2,1,1000) -0.2107471E-10                  1_GWF-(2,1,1000) -0.6544388E-13
       1429       214         1                  1_GWF-(2,1,1000)  0.3626741E-08                   1_GWF-(2,1,977) -0.1822257E-12
       1430       214         2                  1_GWF-(2,1,1000)  0.1809922E-10                   1_GWF-(2,1,977) -0.1429871E-12
       1431       214         3                  1_GWF-(2,1,1000) -0.1001740E-10                   1_GWF-(2,1,977) -0.1283825E-12
       1432       214         4                  1_GWF-(2,1,1000) -0.2133849E-10                   1_GWF-(2,1,977) -0.1190946E-12
       1433       214         5                  1_GWF-(2,1,1000) -0.7551278E-11                   1_GWF-(2,1,977) -0.1133322E-12
       1434       215         1                  1_GWF-(2,1,1000) -0.6015398E-10                  1_GWF-(2,1,1000) -0.1220174E-10
       1435       215         2                  1_GWF-(2,1,1000) -0.1823729E-09                  1_GWF-(2,1,1000) -0.7046938E-11
       1436       215         3                  1_GWF-(2,1,1000) -0.2335803E-09                  1_GWF-(2,1,1000) -0.2225769E-11
       1437       215         4                  1_GWF-(2,1,1000) -0.1933269E-09                  1_GWF-(2,1,1000)  0.1191543E-11
       1438       215         5                  1_GWF-(2,1,1000) -0.5521627E-10                  1_GWF-(2,1,1000)  0.1734038E-11

 INFORMATION ON VARIABLES STORED IN THE MEMORY MANAGER
 
 Number of allocated integer variables:   30159318
 Number of allocated real variables:    20143996
 Allocated memory in megabytes:     281.789    
 

 Run end date and time (yyyy/mm/dd hh:mm:ss): 2020/06/15 14:12:41
 Elapsed run time:  0.567 Seconds

 Normal termination of simulation.
