                                   MODFLOW 6
                U.S. GEOLOGICAL SURVEY MODULAR HYDROLOGIC MODEL
                          GROUNDWATER FLOW MODEL (GWF)
                            VERSION 6.1.0 12/12/2019

   MODFLOW 6 compiled Dec 12 2019 13:30:12 with IFORT compiler (ver. 19.0.5)

This software has been approved for release by the U.S. Geological 
Survey (USGS). Although the software has been subjected to rigorous 
review, the USGS reserves the right to update the software as needed 
pursuant to further analysis and review. No warranty, expressed or 
implied, is made by the USGS or the U.S. Government as to the 
functionality of the software and related material nor shall the 
fact of release constitute any such warranty. Furthermore, the 
software is released on condition that neither the USGS nor the U.S. 
Government shall be held liable for any damages resulting from its 
authorized or unauthorized use. Also refer to the USGS Water 
Resources Software User Rights Notice for complete use, copyright, 
and distribution information.


MODFLOW was compiled using uniform precision.
Precision of REAL variables: 15


 OPENED benchmark_mf6.dis
 FILE TYPE:DIS6                   UNIT 1005   STATUS:OLD                 
 FORMAT:FORMATTED              ACCESS:SEQUENTIAL          
 ACTION:READ                


 OPENED benchmark_mf6.ic
 FILE TYPE:IC6                    UNIT 1006   STATUS:OLD                 
 FORMAT:FORMATTED              ACCESS:SEQUENTIAL          
 ACTION:READ                


 OPENED benchmark_mf6.npf
 FILE TYPE:NPF6                   UNIT 1007   STATUS:OLD                 
 FORMAT:FORMATTED              ACCESS:SEQUENTIAL          
 ACTION:READ                


 OPENED benchmark_mf6.rch
 FILE TYPE:RCH6                   UNIT 1008   STATUS:OLD                 
 FORMAT:FORMATTED              ACCESS:SEQUENTIAL          
 ACTION:READ                


 OPENED benchmark_mf6.chd
 FILE TYPE:CHD6                   UNIT 1009   STATUS:OLD                 
 FORMAT:FORMATTED              ACCESS:SEQUENTIAL          
 ACTION:READ                


 OPENED benchmark_mf6.oc
 FILE TYPE:OC6                    UNIT 1010   STATUS:OLD                 
 FORMAT:FORMATTED              ACCESS:SEQUENTIAL          
 ACTION:READ                

 NAMEFILE OPTIONS:
    NEWTON-RAPHSON method enabled for the model.
    NEWTON-RAPHSON UNDER-RELAXATION based on the bottom elevation of the model will be applied to the model.

 DIS -- STRUCTURED GRID DISCRETIZATION PACKAGE, VERSION 2 : 3/27/2014 - INPUT READ FROM UNIT 1005


 PROCESSING DISCRETIZATION OPTIONS
 END OF DISCRETIZATION OPTIONS
 MODEL LENGTH UNIT IS UNDEFINED
 PROCESSING DISCRETIZATION DIMENSIONS
    NLAY =       2
    NROW =       1
    NCOL =    1000
 END OF DISCRETIZATION DIMENSIONS
 PROCESSING GRIDDATA

                     DELR =   10.00000    

                     DELC =   1.000000    
 END PROCESSING GRIDDATA

 NPF -- NODE PROPERTY FLOW PACKAGE, VERSION 1, 3/30/2015 INPUT READ FROM UNIT 1007


 PROCESSING NPF OPTIONS
    CELL-BY-CELL FLOW INFORMATION WILL BE SAVED TO BINARY FILE WHENEVER ICBCFL IS NOT ZERO.
 END OF NPF OPTIONS

 RCH   -- RCH PACKAGE, VERSION 8, 2/22/2014 INPUT READ FROM UNIT 1008

 PROCESSING RCH OPTIONS
    RECHARGE WILL BE APPLIED TO SPECIFIED CELL.
 END OF RCH OPTIONS

 PROCESSING RCH DIMENSIONS
    MAXBOUND =    2000
 END OF RCH DIMENSIONS

 CHD   -- CHD PACKAGE, VERSION 8, 2/22/2014 INPUT READ FROM UNIT 1009

 PROCESSING CHD OPTIONS
    FLOWS WILL BE SAVED TO BUDGET FILE SPECIFIED IN OUTPUT CONTROL
 END OF CHD OPTIONS

 PROCESSING CHD DIMENSIONS
    MAXBOUND =       2
 END OF CHD DIMENSIONS

 IC -- INITIAL CONDITIONS PACKAGE, VERSION 8, 3/28/2015 INPUT READ FROM UNIT 1006
 PROCESSING GRIDDATA
 END PROCESSING GRIDDATA
 PROCESSING GRIDDATA

                ICELLTYPE = 1

                        K =  0.1000000E-02 FOR LAYER 1

                        K =  0.1000000E-04 FOR LAYER 2

                      K33 =  0.1000000E-03 FOR LAYER 1

                      K33 =  0.1000000E-05 FOR LAYER 2

                   WETDRY =  -1.000000    
 K22 not provided.  Assuming K22 = K.
 END PROCESSING GRIDDATA
    BINARY GRID INFORMATION WILL BE WRITTEN TO:
      UNIT NUMBER: 1012
      FILE NAME: F:\veeth\OneDrive - stud.uni-stuttgart.de\[kup]\ModFlow\projs\mf5-mf6_benchmarks\scripts\mf6 benchmark\data\benchmark_mf6.dis.grb

 OPENED F:\veeth\OneDrive - stud.uni-stuttgart.de\[kup]\ModFlow\projs\mf5-mf6_benchmarks\scripts\mf6 benchmark\data\benchmark_mf6.dis.grb
 FILE TYPE:DATA(BINARY)   UNIT 1012   STATUS:REPLACE             
 FORMAT:UNFORMATTED            ACCESS:STREAM              
 ACTION:READWRITE           

      THE LAST TIME STEP WILL BE PRINTED
      THE LAST TIME STEP WILL BE PRINTED
 PROCESSING OC OPTIONS
    BUDGET INFORMATION WILL BE WRITTEN TO:
      UNIT NUMBER: 1013
      FILE NAME: benchmark_mf6.cbb

 OPENED benchmark_mf6.cbb
 FILE TYPE:DATA(BINARY)   UNIT 1013   STATUS:REPLACE             
 FORMAT:UNFORMATTED            ACCESS:STREAM              
 ACTION:READWRITE           

    HEAD INFORMATION WILL BE WRITTEN TO:
      UNIT NUMBER: 1014
      FILE NAME: benchmark_mf6.hds

 OPENED benchmark_mf6.hds
 FILE TYPE:DATA(BINARY)   UNIT 1014   STATUS:REPLACE             
 FORMAT:UNFORMATTED            ACCESS:STREAM              
 ACTION:READWRITE           

 END OF OC OPTIONS

 BEGIN READING OUTPUT CONTROL FOR STRESS PERIOD 1
      ALL TIME STEPS WILL BE SAVED
      ALL TIME STEPS WILL BE SAVED
      THE LAST TIME STEP WILL BE PRINTED

 END READING OUTPUT CONTROL FOR STRESS PERIOD 1
 UBDSV1 SAVING     FLOW-JA-FACE ON UNIT   1013 AT TIME STEP      1, STRESS PERIOD      1
 UBDSV06 SAVING              CHD IN MODEL BENCHMARK_MF6    PACKAGE BENCHMARK_MF6   CONNECTED TO MODEL BENCHMARK_MF6    PACKAGE CHD              ON UNIT   1013 AT TIME STEP      1, STRESS PERIOD      1

         ****FAILED TO MEET SOLVER CONVERGENCE CRITERIA IN TIME STEP 1 OF STRESS PERIOD 1****
1
  HEAD IN LAYER   1 AT END OF TIME STEP   1 IN STRESS PERIOD    1
  ---------------------------------------------------------------------------

            1           2           3           4           5           6           7           8           9          10
           11          12          13          14          15          16          17          18          19          20
           21          22          23          24          25          26          27          28          29          30
           31          32          33          34          35          36          37          38          39          40
           41          42          43          44          45          46          47          48          49          50
           51          52          53          54          55          56          57          58          59          60
           61          62          63          64          65          66          67          68          69          70
           71          72          73          74          75          76          77          78          79          80
           81          82          83          84          85          86          87          88          89          90
           91          92          93          94          95          96          97          98          99         100
          101         102         103         104         105         106         107         108         109         110
          111         112         113         114         115         116         117         118         119         120
          121         122         123         124         125         126         127         128         129         130
          131         132         133         134         135         136         137         138         139         140
          141         142         143         144         145         146         147         148         149         150
          151         152         153         154         155         156         157         158         159         160
          161         162         163         164         165         166         167         168         169         170
          171         172         173         174         175         176         177         178         179         180
          181         182         183         184         185         186         187         188         189         190
          191         192         193         194         195         196         197         198         199         200
          201         202         203         204         205         206         207         208         209         210
          211         212         213         214         215         216         217         218         219         220
          221         222         223         224         225         226         227         228         229         230
          231         232         233         234         235         236         237         238         239         240
          241         242         243         244         245         246         247         248         249         250
          251         252         253         254         255         256         257         258         259         260
          261         262         263         264         265         266         267         268         269         270
          271         272         273         274         275         276         277         278         279         280
          281         282         283         284         285         286         287         288         289         290
          291         292         293         294         295         296         297         298         299         300
          301         302         303         304         305         306         307         308         309         310
          311         312         313         314         315         316         317         318         319         320
          321         322         323         324         325         326         327         328         329         330
          331         332         333         334         335         336         337         338         339         340
          341         342         343         344         345         346         347         348         349         350
          351         352         353         354         355         356         357         358         359         360
          361         362         363         364         365         366         367         368         369         370
          371         372         373         374         375         376         377         378         379         380
          381         382         383         384         385         386         387         388         389         390
          391         392         393         394         395         396         397         398         399         400
          401         402         403         404         405         406         407         408         409         410
          411         412         413         414         415         416         417         418         419         420
          421         422         423         424         425         426         427         428         429         430
          431         432         433         434         435         436         437         438         439         440
          441         442         443         444         445         446         447         448         449         450
          451         452         453         454         455         456         457         458         459         460
          461         462         463         464         465         466         467         468         469         470
          471         472         473         474         475         476         477         478         479         480
          481         482         483         484         485         486         487         488         489         490
          491         492         493         494         495         496         497         498         499         500
          501         502         503         504         505         506         507         508         509         510
          511         512         513         514         515         516         517         518         519         520
          521         522         523         524         525         526         527         528         529         530
          531         532         533         534         535         536         537         538         539         540
          541         542         543         544         545         546         547         548         549         550
          551         552         553         554         555         556         557         558         559         560
          561         562         563         564         565         566         567         568         569         570
          571         572         573         574         575         576         577         578         579         580
          581         582         583         584         585         586         587         588         589         590
          591         592         593         594         595         596         597         598         599         600
          601         602         603         604         605         606         607         608         609         610
          611         612         613         614         615         616         617         618         619         620
          621         622         623         624         625         626         627         628         629         630
          631         632         633         634         635         636         637         638         639         640
          641         642         643         644         645         646         647         648         649         650
          651         652         653         654         655         656         657         658         659         660
          661         662         663         664         665         666         667         668         669         670
          671         672         673         674         675         676         677         678         679         680
          681         682         683         684         685         686         687         688         689         690
          691         692         693         694         695         696         697         698         699         700
          701         702         703         704         705         706         707         708         709         710
          711         712         713         714         715         716         717         718         719         720
          721         722         723         724         725         726         727         728         729         730
          731         732         733         734         735         736         737         738         739         740
          741         742         743         744         745         746         747         748         749         750
          751         752         753         754         755         756         757         758         759         760
          761         762         763         764         765         766         767         768         769         770
          771         772         773         774         775         776         777         778         779         780
          781         782         783         784         785         786         787         788         789         790
          791         792         793         794         795         796         797         798         799         800
          801         802         803         804         805         806         807         808         809         810
          811         812         813         814         815         816         817         818         819         820
          821         822         823         824         825         826         827         828         829         830
          831         832         833         834         835         836         837         838         839         840
          841         842         843         844         845         846         847         848         849         850
          851         852         853         854         855         856         857         858         859         860
          861         862         863         864         865         866         867         868         869         870
          871         872         873         874         875         876         877         878         879         880
          881         882         883         884         885         886         887         888         889         890
          891         892         893         894         895         896         897         898         899         900
          901         902         903         904         905         906         907         908         909         910
          911         912         913         914         915         916         917         918         919         920
          921         922         923         924         925         926         927         928         929         930
          931         932         933         934         935         936         937         938         939         940
          941         942         943         944         945         946         947         948         949         950
          951         952         953         954         955         956         957         958         959         960
          961         962         963         964         965         966         967         968         969         970
          971         972         973         974         975         976         977         978         979         980
          981         982         983         984         985         986         987         988         989         990
          991         992         993         994         995         996         997         998         999        1000
 ........................................................................................................................
   1    224.8       224.6       224.4       224.2       224.0       223.8       223.6       223.4       223.2       223.0    
        222.8       222.6       222.4       222.2       222.0       221.8       221.6       221.4       221.2       221.0    
        220.8       220.6       220.4       220.2       220.0       219.8       219.6       219.4       219.2       219.0    
        218.8       218.6       218.4       218.2       218.0       217.8       217.6       217.4       217.2       217.0    
        216.8       216.6       216.4       216.2       216.0       215.8       215.6       215.4       215.2       215.0    
        214.8       214.6       214.4       214.2       214.0       213.8       213.6       213.4       213.2       213.0    
        212.8       212.6       212.4       212.2       212.0       211.8       211.6       211.4       211.2       211.0    
        210.8       210.6       210.4       210.2       210.0       209.8       209.6       209.4       209.2       209.0    
        208.8       208.6       208.4       208.2       208.0       207.8       207.6       207.4       207.2       207.0    
        206.8       206.6       206.4       206.2       206.0       205.8       205.6       205.4       205.2       205.0    
        204.8       204.6       204.4       204.2       204.0       203.8       203.6       203.4       203.2       203.0    
        202.8       202.6       202.4       202.2       202.0       201.8       201.6       201.4       201.2       201.0    
        200.8       200.6       200.4       200.2       200.0       199.8       199.6       199.4       199.2       199.0    
        198.8       198.6       198.4       198.2       198.0       197.8       197.6       197.4       197.2       197.0    
        196.8       196.6       196.4       196.2       196.0       195.8       195.6       195.4       195.2       195.0    
        194.8       194.6       194.4       194.2       194.0       193.8       193.6       193.4       193.2       193.0    
        192.8       192.6       192.4       192.2       192.0       191.8       191.6       191.4       191.2       191.0    
        190.8       190.6       190.4       190.2       190.0       189.8       189.6       189.4       189.2       189.0    
        188.8       188.6       188.4       188.2       188.0       187.8       187.6       187.4       187.2       187.0    
        186.8       186.6       186.4       186.2       186.0       185.8       185.6       185.4       185.2       185.0    
        184.8       184.6       184.4       184.2       184.0       183.8       183.6       183.4       183.2       183.0    
        182.8       182.6       182.4       182.2       182.0       181.8       181.6       181.4       181.2       181.0    
        180.8       180.6       180.4       180.2       180.0       179.8       179.6       179.4       179.2       179.0    
        178.8       178.6       178.4       178.2       178.0       177.8       177.6       177.4       177.2       177.0    
        176.8       176.6       176.4       176.2       176.0       175.8       175.6       175.4       175.2       175.0    
        174.8       174.6       174.4       174.2       174.0       173.8       173.6       173.4       173.2       173.0    
        172.8       172.6       172.4       172.2       172.0       171.8       171.6       171.4       171.2       171.0    
        170.8       170.6       170.4       170.2       170.0       169.8       169.6       169.4       169.2       169.0    
        168.8       168.6       168.4       168.2       168.0       167.8       167.6       167.4       167.2       167.0    
        166.8       166.6       166.4       166.2       166.0       165.8       165.6       165.4       165.2       165.0    
        164.8       164.6       164.4       164.2       164.0       163.8       163.6       163.4       163.2       163.0    
        162.8       162.6       162.4       162.2       162.0       161.8       161.6       161.4       161.2       161.0    
        160.8       160.6       160.4       160.2       160.0       159.8       159.6       159.4       159.2       159.0    
        158.8       158.6       158.4       158.2       158.0       157.8       157.6       157.4       157.2       157.0    
        156.8       156.6       156.4       156.2       156.0       155.8       155.6       155.4       155.2       155.0    
        154.8       154.6       154.4       154.2       154.0       153.8       153.6       153.4       153.2       153.0    
        152.8       152.6       152.4       152.2       152.0       151.8       151.6       151.4       151.2       151.0    
        150.8       150.6       150.4       150.2       150.0       149.8       149.6       149.4       149.2       149.0    
        148.8       148.6       148.4       148.2       148.0       147.8       147.6       147.4       147.2       147.0    
        146.8       146.6       146.4       146.2       146.0       145.8       145.6       145.4       145.2       145.0    
        144.8       144.6       144.4       144.2       144.0       143.8       143.6       143.4       143.2       143.0    
        142.8       142.6       142.4       142.2       142.0       141.8       141.6       141.4       141.2       141.0    
        140.8       140.6       140.4       140.2       140.0       139.8       139.6       139.4       139.2       139.0    
        138.8       138.6       138.4       138.2       138.0       137.8       137.6       137.4       137.2       137.0    
        136.8       136.6       136.4       136.2       136.0       135.8       135.6       135.4       135.2       135.0    
        134.8       134.6       134.4       134.2       134.0       133.8       133.6       133.4       133.2       133.0    
        132.8       132.6       132.4       132.2       132.0       131.8       131.6       131.4       131.2       131.0    
        130.8       130.6       130.4       130.2       130.0       129.8       129.6       129.4       129.2       129.0    
        128.8       128.6       128.4       128.2       128.0       127.8       127.6       127.4       127.2       127.0    
        126.8       126.6       126.4       126.2       126.0       125.8       125.6       125.4       125.2       125.0    
        124.8       124.6       124.4       124.2       124.0       123.8       123.6       123.4       123.2       123.0    
        122.8       122.6       122.4       122.2       122.0       121.8       121.6       121.4       121.2       121.0    
        120.8       120.6       120.4       120.2       120.0       119.8       119.6       119.4       119.2       119.0    
        118.8       118.6       118.4       118.2       118.0       117.8       117.6       117.4       117.2       117.0    
        116.8       116.6       116.4       116.2       116.0       115.8       115.6       115.4       115.2       115.0    
        114.8       114.6       114.4       114.2       114.0       113.8       113.6       113.4       113.2       113.0    
        112.8       112.6       112.4       112.2       112.0       111.8       111.6       111.4       111.2       111.0    
        110.8       110.6       110.4       110.2       110.0       109.8       109.6       109.4       109.2       109.0    
        108.8       108.6       108.4       108.2       108.0       107.8       107.6       107.4       107.2       107.0    
        106.8       106.6       106.4       106.2       106.0       105.8       105.6       105.4       105.2       105.0    
        104.8       104.6       104.4       104.2       104.0       103.8       103.6       103.4       103.2       103.0    
        102.8       102.6       102.4       102.2       102.0       101.8       101.6       101.4       101.2       101.0    
        100.8       100.6       100.4       100.2       100.0       99.80       99.60       99.40       99.20       99.00    
        98.80       98.60       98.40       98.20       98.00       97.80       97.60       97.40       97.20       97.00    
        96.80       96.60       96.40       96.20       96.00       95.80       95.60       95.40       95.20       95.00    
        94.80       94.60       94.40       94.20       94.00       93.80       93.60       93.40       93.20       93.00    
        92.80       92.60       92.40       92.20       92.00       91.80       91.60       91.40       91.20       91.00    
        90.80       90.60       90.40       90.20       90.00       89.80       89.60       89.40       89.20       89.00    
        88.80       88.60       88.40       88.20       88.00       87.80       87.60       87.40       87.20       87.00    
        86.80       86.60       86.40       86.20       86.00       85.80       85.60       85.40       85.20       85.00    
        84.80       84.60       84.40       84.20       84.00       83.80       83.60       83.40       83.20       83.00    
        82.80       82.60       82.40       82.20       82.00       81.80       81.60       81.40       81.20       81.00    
        80.80       80.60       80.40       80.20       80.00       79.80       79.60       79.40       79.20       79.00    
        78.80       78.60       78.40       78.20       78.00       77.80       77.60       77.40       77.20       77.00    
        76.80       76.60       76.40       76.20       76.00       75.80       75.60       75.40       75.20       75.00    
        74.80       74.60       74.40       74.20       74.00       73.80       73.60       73.40       73.20       73.00    
        72.80       72.60       72.40       72.20       72.00       71.80       71.60       71.40       71.20       71.00    
        70.80       70.60       70.40       70.20       70.00       69.80       69.60       69.40       69.20       69.00    
        68.80       68.60       68.40       68.20       68.00       67.80       67.60       67.40       67.20       67.00    
        66.80       66.60       66.40       66.20       66.00       65.80       65.60       65.40       65.20       65.00    
        64.80       64.60       64.40       64.20       64.00       63.80       63.60       63.40       63.20       63.00    
        62.80       62.60       62.40       62.20       62.00       61.80       61.60       61.40       61.20       61.00    
        60.80       60.60       60.40       60.20       60.00       59.80       59.60       59.40       59.20       59.00    
        58.80       58.60       58.40       58.20       58.00       57.80       57.60       57.40       57.20       57.00    
        56.80       56.60       56.40       56.20       56.00       55.80       55.60       55.40       55.20       55.00    
        54.80       54.60       54.40       54.20       54.00       53.80       53.60       53.40       53.20       53.00    
        52.80       52.60       52.40       52.20       52.00       51.80       51.60       51.40       51.20       51.00    
        50.80       50.60       50.40       50.20       50.00       49.80       49.60       49.40       49.20       49.00    
        48.80       48.60       48.40       48.20       48.00       47.80       47.60       47.40       47.20       47.00    
        46.80       46.60       46.40       46.20       46.00       45.80       45.60       45.40       45.20       45.00    
        44.80       44.60       44.40       44.20       44.00       43.80       43.60       43.40       43.20       43.00    
        42.80       42.60       42.40       42.20       42.00       41.80       41.60       41.40       41.20       41.00    
        40.80       40.60       40.40       40.20       40.00       39.80       39.60       39.40       39.20       39.00    
        38.80       38.60       38.40       38.20       38.00       37.80       37.60       37.40       37.20       37.00    
        36.80       36.60       36.40       36.20       36.00       35.80       35.60       35.40       35.20       35.00    
        34.80       34.60       34.40       34.20       34.00       33.80       33.60       33.40       33.20       33.00    
        32.80       32.60       32.40       32.20       32.00       31.80       31.60       31.40       31.20       31.00    
        30.80       30.60       30.40       30.20       30.00       29.80       29.60       29.40       29.20       29.00    
        28.80       28.60       28.40       28.20       28.00       27.80       27.60       27.40       27.20       27.00    
        26.80       26.60       26.40       26.20       26.00       25.80       25.60       25.40       25.20       15.00    
1
  HEAD IN LAYER   2 AT END OF TIME STEP   1 IN STRESS PERIOD    1
  ---------------------------------------------------------------------------

            1           2           3           4           5           6           7           8           9          10
           11          12          13          14          15          16          17          18          19          20
           21          22          23          24          25          26          27          28          29          30
           31          32          33          34          35          36          37          38          39          40
           41          42          43          44          45          46          47          48          49          50
           51          52          53          54          55          56          57          58          59          60
           61          62          63          64          65          66          67          68          69          70
           71          72          73          74          75          76          77          78          79          80
           81          82          83          84          85          86          87          88          89          90
           91          92          93          94          95          96          97          98          99         100
          101         102         103         104         105         106         107         108         109         110
          111         112         113         114         115         116         117         118         119         120
          121         122         123         124         125         126         127         128         129         130
          131         132         133         134         135         136         137         138         139         140
          141         142         143         144         145         146         147         148         149         150
          151         152         153         154         155         156         157         158         159         160
          161         162         163         164         165         166         167         168         169         170
          171         172         173         174         175         176         177         178         179         180
          181         182         183         184         185         186         187         188         189         190
          191         192         193         194         195         196         197         198         199         200
          201         202         203         204         205         206         207         208         209         210
          211         212         213         214         215         216         217         218         219         220
          221         222         223         224         225         226         227         228         229         230
          231         232         233         234         235         236         237         238         239         240
          241         242         243         244         245         246         247         248         249         250
          251         252         253         254         255         256         257         258         259         260
          261         262         263         264         265         266         267         268         269         270
          271         272         273         274         275         276         277         278         279         280
          281         282         283         284         285         286         287         288         289         290
          291         292         293         294         295         296         297         298         299         300
          301         302         303         304         305         306         307         308         309         310
          311         312         313         314         315         316         317         318         319         320
          321         322         323         324         325         326         327         328         329         330
          331         332         333         334         335         336         337         338         339         340
          341         342         343         344         345         346         347         348         349         350
          351         352         353         354         355         356         357         358         359         360
          361         362         363         364         365         366         367         368         369         370
          371         372         373         374         375         376         377         378         379         380
          381         382         383         384         385         386         387         388         389         390
          391         392         393         394         395         396         397         398         399         400
          401         402         403         404         405         406         407         408         409         410
          411         412         413         414         415         416         417         418         419         420
          421         422         423         424         425         426         427         428         429         430
          431         432         433         434         435         436         437         438         439         440
          441         442         443         444         445         446         447         448         449         450
          451         452         453         454         455         456         457         458         459         460
          461         462         463         464         465         466         467         468         469         470
          471         472         473         474         475         476         477         478         479         480
          481         482         483         484         485         486         487         488         489         490
          491         492         493         494         495         496         497         498         499         500
          501         502         503         504         505         506         507         508         509         510
          511         512         513         514         515         516         517         518         519         520
          521         522         523         524         525         526         527         528         529         530
          531         532         533         534         535         536         537         538         539         540
          541         542         543         544         545         546         547         548         549         550
          551         552         553         554         555         556         557         558         559         560
          561         562         563         564         565         566         567         568         569         570
          571         572         573         574         575         576         577         578         579         580
          581         582         583         584         585         586         587         588         589         590
          591         592         593         594         595         596         597         598         599         600
          601         602         603         604         605         606         607         608         609         610
          611         612         613         614         615         616         617         618         619         620
          621         622         623         624         625         626         627         628         629         630
          631         632         633         634         635         636         637         638         639         640
          641         642         643         644         645         646         647         648         649         650
          651         652         653         654         655         656         657         658         659         660
          661         662         663         664         665         666         667         668         669         670
          671         672         673         674         675         676         677         678         679         680
          681         682         683         684         685         686         687         688         689         690
          691         692         693         694         695         696         697         698         699         700
          701         702         703         704         705         706         707         708         709         710
          711         712         713         714         715         716         717         718         719         720
          721         722         723         724         725         726         727         728         729         730
          731         732         733         734         735         736         737         738         739         740
          741         742         743         744         745         746         747         748         749         750
          751         752         753         754         755         756         757         758         759         760
          761         762         763         764         765         766         767         768         769         770
          771         772         773         774         775         776         777         778         779         780
          781         782         783         784         785         786         787         788         789         790
          791         792         793         794         795         796         797         798         799         800
          801         802         803         804         805         806         807         808         809         810
          811         812         813         814         815         816         817         818         819         820
          821         822         823         824         825         826         827         828         829         830
          831         832         833         834         835         836         837         838         839         840
          841         842         843         844         845         846         847         848         849         850
          851         852         853         854         855         856         857         858         859         860
          861         862         863         864         865         866         867         868         869         870
          871         872         873         874         875         876         877         878         879         880
          881         882         883         884         885         886         887         888         889         890
          891         892         893         894         895         896         897         898         899         900
          901         902         903         904         905         906         907         908         909         910
          911         912         913         914         915         916         917         918         919         920
          921         922         923         924         925         926         927         928         929         930
          931         932         933         934         935         936         937         938         939         940
          941         942         943         944         945         946         947         948         949         950
          951         952         953         954         955         956         957         958         959         960
          961         962         963         964         965         966         967         968         969         970
          971         972         973         974         975         976         977         978         979         980
          981         982         983         984         985         986         987         988         989         990
          991         992         993         994         995         996         997         998         999        1000
 ........................................................................................................................
   1    224.8       224.6       224.4       224.2       224.0       223.8       223.6       223.4       223.2       223.0    
        222.8       222.6       222.4       222.2       222.0       221.8       221.6       221.4       221.2       221.0    
        220.8       220.6       220.4       220.2       220.0       219.8       219.6       219.4       219.2       219.0    
        218.8       218.6       218.4       218.2       218.0       217.8       217.6       217.4       217.2       217.0    
        216.8       216.6       216.4       216.2       216.0       215.8       215.6       215.4       215.2       215.0    
        214.8       214.6       214.4       214.2       214.0       213.8       213.6       213.4       213.2       213.0    
        212.8       212.6       212.4       212.2       212.0       211.8       211.6       211.4       211.2       211.0    
        210.8       210.6       210.4       210.2       210.0       209.8       209.6       209.4       209.2       209.0    
        208.8       208.6       208.4       208.2       208.0       207.8       207.6       207.4       207.2       207.0    
        206.8       206.6       206.4       206.2       206.0       205.8       205.6       205.4       205.2       205.0    
        204.8       204.6       204.4       204.2       204.0       203.8       203.6       203.4       203.2       203.0    
        202.8       202.6       202.4       202.2       202.0       201.8       201.6       201.4       201.2       201.0    
        200.8       200.6       200.4       200.2       200.0       199.8       199.6       199.4       199.2       199.0    
        198.8       198.6       198.4       198.2       198.0       197.8       197.6       197.4       197.2       197.0    
        196.8       196.6       196.4       196.2       196.0       195.8       195.6       195.4       195.2       195.0    
        194.8       194.6       194.4       194.2       194.0       193.8       193.6       193.4       193.2       193.0    
        192.8       192.6       192.4       192.2       192.0       191.8       191.6       191.4       191.2       191.0    
        190.8       190.6       190.4       190.2       190.0       189.8       189.6       189.4       189.2       189.0    
        188.8       188.6       188.4       188.2       188.0       187.8       187.6       187.4       187.2       187.0    
        186.8       186.6       186.4       186.2       186.0       185.8       185.6       185.4       185.2       185.0    
        184.8       184.6       184.4       184.2       184.0       183.8       183.6       183.4       183.2       183.0    
        182.8       182.6       182.4       182.2       182.0       181.8       181.6       181.4       181.2       181.0    
        180.8       180.6       180.4       180.2       180.0       179.8       179.6       179.4       179.2       179.0    
        178.8       178.6       178.4       178.2       178.0       177.8       177.6       177.4       177.2       177.0    
        176.8       176.6       176.4       176.2       176.0       175.8       175.6       175.4       175.2       175.0    
        174.8       174.6       174.4       174.2       174.0       173.8       173.6       173.4       173.2       173.0    
        172.8       172.6       172.4       172.2       172.0       171.8       171.6       171.4       171.2       171.0    
        170.8       170.6       170.4       170.2       170.0       169.8       169.6       169.4       169.2       169.0    
        168.8       168.6       168.4       168.2       168.0       167.8       167.6       167.4       167.2       167.0    
        166.8       166.6       166.4       166.2       166.0       165.8       165.6       165.4       165.2       165.0    
        164.8       164.6       164.4       164.2       164.0       163.8       163.6       163.4       163.2       163.0    
        162.8       162.6       162.4       162.2       162.0       161.8       161.6       161.4       161.2       161.0    
        160.8       160.6       160.4       160.2       160.0       159.8       159.6       159.4       159.2       159.0    
        158.8       158.6       158.4       158.2       158.0       157.8       157.6       157.4       157.2       157.0    
        156.8       156.6       156.4       156.2       156.0       155.8       155.6       155.4       155.2       155.0    
        154.8       154.6       154.4       154.2       154.0       153.8       153.6       153.4       153.2       153.0    
        152.8       152.6       152.4       152.2       152.0       151.8       151.6       151.4       151.2       151.0    
        150.8       150.6       150.4       150.2       150.0       149.8       149.6       149.4       149.2       149.0    
        148.8       148.6       148.4       148.2       148.0       147.8       147.6       147.4       147.2       147.0    
        146.8       146.6       146.4       146.2       146.0       145.8       145.6       145.4       145.2       145.0    
        144.8       144.6       144.4       144.2       144.0       143.8       143.6       143.4       143.2       143.0    
        142.8       142.6       142.4       142.2       142.0       141.8       141.6       141.4       141.2       141.0    
        140.8       140.6       140.4       140.2       140.0       139.8       139.6       139.4       139.2       139.0    
        138.8       138.6       138.4       138.2       138.0       137.8       137.6       137.4       137.2       137.0    
        136.8       136.6       136.4       136.2       136.0       135.8       135.6       135.4       135.2       135.0    
        134.8       134.6       134.4       134.2       134.0       133.8       133.6       133.4       133.2       133.0    
        132.8       132.6       132.4       132.2       132.0       131.8       131.6       131.4       131.2       131.0    
        130.8       130.6       130.4       130.2       130.0       129.8       129.6       129.4       129.2       129.0    
        128.8       128.6       128.4       128.2       128.0       127.8       127.6       127.4       127.2       127.0    
        126.8       126.6       126.4       126.2       126.0       125.8       125.6       125.4       125.2       125.0    
        124.8       124.6       124.4       124.2       124.0       123.8       123.6       123.4       123.2       123.0    
        122.8       122.6       122.4       122.2       122.0       121.8       121.6       121.4       121.2       121.0    
        120.8       120.6       120.4       120.2       120.0       119.8       119.6       119.4       119.2       119.0    
        118.8       118.6       118.4       118.2       118.0       117.8       117.6       117.4       117.2       117.0    
        116.8       116.6       116.4       116.2       116.0       115.8       115.6       115.4       115.2       115.0    
        114.8       114.6       114.4       114.2       114.0       113.8       113.6       113.4       113.2       113.0    
        112.8       112.6       112.4       112.2       112.0       111.8       111.6       111.4       111.2       111.0    
        110.8       110.6       110.4       110.2       110.0       109.8       109.6       109.4       109.2       109.0    
        108.8       108.6       108.4       108.2       108.0       107.8       107.6       107.4       107.2       107.0    
        106.8       106.6       106.4       106.2       106.0       105.8       105.6       105.4       105.2       105.0    
        104.8       104.6       104.4       104.2       104.0       103.8       103.6       103.4       103.2       103.0    
        102.8       102.6       102.4       102.2       102.0       101.8       101.6       101.4       101.2       101.0    
        100.8       100.6       100.4       100.2       100.0       99.80       99.60       99.40       99.20       99.00    
        98.80       98.60       98.40       98.20       98.00       97.80       97.60       97.40       97.20       97.00    
        96.80       96.60       96.40       96.20       96.00       95.80       95.60       95.40       95.20       95.00    
        94.80       94.60       94.40       94.20       94.00       93.80       93.60       93.40       93.20       93.00    
        92.80       92.60       92.40       92.20       92.00       91.80       91.60       91.40       91.20       91.00    
        90.80       90.60       90.40       90.20       90.00       89.80       89.60       89.40       89.20       89.00    
        88.80       88.60       88.40       88.20       88.00       87.80       87.60       87.40       87.20       87.00    
        86.80       86.60       86.40       86.20       86.00       85.80       85.60       85.40       85.20       85.00    
        84.80       84.60       84.40       84.20       84.00       83.80       83.60       83.40       83.20       83.00    
        82.80       82.60       82.40       82.20       82.00       81.80       81.60       81.40       81.20       81.00    
        80.80       80.60       80.40       80.20       80.00       79.80       79.60       79.40       79.20       79.00    
        78.80       78.60       78.40       78.20       78.00       77.80       77.60       77.40       77.20       77.00    
        76.80       76.60       76.40       76.20       76.00       75.80       75.60       75.40       75.20       75.00    
        74.80       74.60       74.40       74.20       74.00       73.80       73.60       73.40       73.20       73.00    
        72.80       72.60       72.40       72.20       72.00       71.80       71.60       71.40       71.20       71.00    
        70.80       70.60       70.40       70.20       70.00       69.80       69.60       69.40       69.20       69.00    
        68.80       68.60       68.40       68.20       68.00       67.80       67.60       67.40       67.20       67.00    
        66.80       66.60       66.40       66.20       66.00       65.80       65.60       65.40       65.20       65.00    
        64.80       64.60       64.40       64.20       64.00       63.80       63.60       63.40       63.20       63.00    
        62.80       62.60       62.40       62.20       62.00       61.80       61.60       61.40       61.20       61.00    
        60.80       60.60       60.40       60.20       60.00       59.80       59.60       59.40       59.20       59.00    
        58.80       58.60       58.40       58.20       58.00       57.80       57.60       57.40       57.20       57.00    
        56.80       56.60       56.40       56.20       56.00       55.80       55.60       55.40       55.20       55.00    
        54.80       54.60       54.40       54.20       54.00       53.80       53.60       53.40       53.20       53.00    
        52.80       52.60       52.40       52.20       52.00       51.80       51.60       51.40       51.20       51.00    
        50.80       50.60       50.40       50.20       50.00       49.80       49.60       49.40       49.20       49.00    
        48.80       48.60       48.40       48.20       48.00       47.80       47.60       47.40       47.20       47.00    
        46.80       46.60       46.40       46.20       46.00       45.80       45.60       45.40       45.20       45.00    
        44.80       44.60       44.40       44.20       44.00       43.80       43.60       43.40       43.20       43.00    
        42.80       42.60       42.40       42.20       42.00       41.80       41.60       41.40       41.20       41.00    
        40.80       40.60       40.40       40.20       40.00       39.80       39.60       39.40       39.20       39.00    
        38.80       38.60       38.40       38.20       38.00       37.80       37.60       37.40       37.20       37.00    
        36.80       36.60       36.40       36.20       36.00       35.80       35.60       35.40       35.20       35.00    
        34.80       34.60       34.40       34.20       34.00       33.80       33.60       33.40       33.20       33.00    
        32.80       32.60       32.40       32.20       32.00       31.80       31.60       31.40       31.20       31.00    
        30.80       30.60       30.40       30.20       30.00       29.80       29.60       29.40       29.20       29.00    
        28.80       28.60       28.40       28.20       28.00       27.80       27.60       27.40       27.20       27.00    
        26.80       26.60       26.40       26.20       26.00       25.80       25.60       25.40       25.20       15.00    

 HEAD WILL BE SAVED ON UNIT 1014 AT END OF TIME STEP    1, STRESS PERIOD    1


  VOLUME BUDGET FOR ENTIRE MODEL AT END OF TIME STEP    1, STRESS PERIOD   1
  ---------------------------------------------------------------------------------------------------

     CUMULATIVE VOLUME      L**3       RATES FOR THIS TIME STEP      L**3/T          PACKAGE NAME    
     ------------------                 ------------------------                     ----------------

           IN:                                      IN:
           ---                                      ---
                 RCH =       6.3356E-05                   RCH =       6.3356E-05     RCH             
                 CHD =           0.0000                   CHD =           0.0000     CHD             

            TOTAL IN =       6.3356E-05              TOTAL IN =       6.3356E-05

          OUT:                                     OUT:
          ----                                     ----
                 RCH =           0.0000                   RCH =           0.0000     RCH             
                 CHD =       1.0302E-02                   CHD =       1.0302E-02     CHD             

           TOTAL OUT =       1.0302E-02             TOTAL OUT =       1.0302E-02

            IN - OUT =      -1.0239E-02              IN - OUT =      -1.0239E-02

 PERCENT DISCREPANCY =        -197.56     PERCENT DISCREPANCY =        -197.56




         TIME SUMMARY AT END OF TIME STEP    1 IN STRESS PERIOD    1
                          TIME STEP LENGTH =    1.00000    
                        STRESS PERIOD TIME =    1.00000    
                     TOTAL SIMULATION TIME =    1.00000    
