                                   MODFLOW 6
                U.S. GEOLOGICAL SURVEY MODULAR HYDROLOGIC MODEL
                            VERSION 6.1.0 12/12/2019

   MODFLOW 6 compiled Dec 12 2019 13:30:12 with IFORT compiler (ver. 19.0.5)

This software has been approved for release by the U.S. Geological 
Survey (USGS). Although the software has been subjected to rigorous 
review, the USGS reserves the right to update the software as needed 
pursuant to further analysis and review. No warranty, expressed or 
implied, is made by the USGS or the U.S. Government as to the 
functionality of the software and related material nor shall the 
fact of release constitute any such warranty. Furthermore, the 
software is released on condition that neither the USGS nor the U.S. 
Government shall be held liable for any damages resulting from its 
authorized or unauthorized use. Also refer to the USGS Water 
Resources Software User Rights Notice for complete use, copyright, 
and distribution information.


System command used to initiate simulation:
../../src/mf6

MODFLOW was compiled using uniform precision.
Real Variables
  PRECISION: 15
  KIND: 8
  TINY (smallest non-zero value):    2.225074-308
  HUGE (largest value):    1.797693+308
Integer Variables
  KIND: 4
  HUGE (largest value): 2147483647
  BIT_SIZE: 32
 

 OPENED mfsim.nam
 FILE TYPE:NAM   UNIT 1001   STATUS:OLD                 
 FORMAT:FORMATTED              ACCESS:SEQUENTIAL          
 ACTION:READ                


 READING SIMULATION OPTIONS
 END OF SIMULATION OPTIONS

 READING SIMULATION TIMING

 OPENED benchmark_mf6.tdis
 FILE TYPE:TDIS   UNIT 1002   STATUS:OLD                 
 FORMAT:FORMATTED              ACCESS:SEQUENTIAL          
 ACTION:READ                


 TDIS -- TEMPORAL DISCRETIZATION PACKAGE,
 VERSION 1 : 11/13/2014 - INPUT READ FROM UNIT 1002
 PROCESSING TDIS OPTIONS
 END OF TDIS OPTIONS
    SIMULATION TIME UNIT IS UNDEFINED
 PROCESSING TDIS DIMENSIONS
    1 STRESS PERIOD(S) IN SIMULATION
 END OF TDIS DIMENSIONS
 PROCESSING TDIS PERIODDATA


 STRESS PERIOD     LENGTH       TIME STEPS     MULTIPLIER FOR DELT
 ----------------------------------------------------------------------------
        1         1.000000          1                    1.000
 END OF TDIS PERIODDATA
 END OF SIMULATION TIMING

 READING SIMULATION MODELS
    GWF6 model BENCHMARK_MF6 will be created as model 1
 END OF SIMULATION MODELS

 READING SIMULATION EXCHANGES
 END OF SIMULATION EXCHANGES

 READING SOLUTIONGROUP

 Creating solution: SLN_1           

 OPENED benchmark_mf6.ims
 FILE TYPE:IMS   UNIT 1011   STATUS:OLD                 
 FORMAT:FORMATTED              ACCESS:SEQUENTIAL          
 ACTION:READ                

 END OF SIMULATION SOLUTIONGROUP

 IMS -- ITERATIVE MODEL SOLUTION PACKAGE, VERSION 6, 4/28/2017
         INPUT READ FROM UNIT 1011

 PROCESSING IMS OPTIONS
 COMPLEX OPTION:
 DEFAULT SOLVER INPUT VALUES REFLECT STRONGLY NONLINEAR MODEL

 OPENED benchmark_mf6.csv
 FILE TYPE:CSV_OUTPUT   UNIT 1015   STATUS:REPLACE             
 FORMAT:FORMATTED              ACCESS:SEQUENTIAL          
 ACTION:READWRITE           

    CSV OUTPUT WILL BE SAVED TO FILE: benchmark_mf6.csv
    OPENED ON UNIT:    1015
 END OF IMS OPTIONS

 PROCESSING IMS NONLINEAR
 END OF IMS NONLINEAR DATA
 **UNDER-RELAXATION WILL BE USED***
 
 ***IMS LINEAR SOLVER WILL BE USED***

 IMSLINEAR -- UNSTRUCTURED LINEAR SOLUTION PACKAGE, VERSION 8, 04/28/2017

 PROCESSING LINEAR DATA
 END OF LINEAR DATA
 
 OUTER ITERATION CONVERGENCE CRITERION     (HCLOSE) =    0.100000E-06
 OUTER ITERATION BOUNDARY FLOW RESIDUAL (RCLOSEBND) =    0.100000E-08
 MAXIMUM NUMBER OF OUTER ITERATIONS        (MXITER) =      1000
 SOLVER PRINTOUT INDEX                     (IPRIMS) =         1
 NONLINEAR ITERATION METHOD            (NONLINMETH) =         1
 LINEAR SOLUTION METHOD                   (LINMETH) =         1
 UNDER-RELAXATION WEIGHT REDUCTION FACTOR   (THETA) =    0.800000E+00
 UNDER-RELAXATION WEIGHT INCREASE INCREMENT (KAPPA) =    0.100000E-03
 UNDER-RELAXATION PREVIOUS HISTORY FACTOR   (GAMMA) =    0.000000E+00
 UNDER-RELAXATIONMOMENTUM TERM          (AMOMENTUM) =    0.000000E+00
    MAXIMUM NUMBER OF BACKTRACKS         (NUMTRACK) =         0

       SOLUTION BY THE BICONJUGATE-GRADIENT STABILIZED METHOD
 ------------------------------------------------------------------
 MAXIMUM OF   1000 CALLS OF SOLUTION ROUTINE
 MAXIMUM OF   1000 INTERNAL ITERATIONS PER CALL TO SOLUTION ROUTINE
 LINEAR ACCELERATION METHOD            = BCGS      
 MATRIX PRECONDITIONING TYPE           = MOD. INCOMPLETE LUT 
 MATRIX SCALING APPROACH               = NO SCALING          
 MATRIX REORDERING APPROACH            = ORIGINAL ORDERING        
 NUMBER OF ORTHOGONALIZATIONS          =        2
 HEAD CHANGE CRITERION FOR CLOSURE     =    0.10000E-01
 RESIDUAL CHANGE CRITERION FOR CLOSURE =    0.10000E-03
 RESIDUAL CONVERGENCE OPTION           =        0
 RESIDUAL CONVERGENCE NORM             = INFINITY NORM   
 RELAXATION FACTOR                     =    0.97000E+00
 NUMBER OF LEVELS                      =              5
 DROP TOLERANCE                        =    0.10000E-03


1
                            STRESS PERIOD NO.    1, LENGTH =   1.000000    
                            -----------------------------------------------

                              NUMBER OF TIME STEPS =     1

                               MULTIPLIER FOR DELT =     1.000

                            INITIAL TIME STEP SIZE =   1.000000    



 PSEUDO-TRANSIENT CONTINUATION WILL BE APPLIED TO MODEL 1 ("BENCHMARK_MF6") DURING THIS TIME STEP


 OUTER ITERATION SUMMARY
 ---------------------------------------------------------------------------------------
                       OUTER     INNER         MAXIMUM                    MAXIMUM CHANGE
                   ITERATION ITERATION          CHANGE                    MODEL-(CELLID)
 ---------------------------------------------------------------------------------------
 Linear Solver             1         5    -9.57732                       1_GWF-(1,1,999)
 Under-relaxation          1               0.00000                       1_GWF-(2,1,999)
 Linear Solver             2        73    -178.454                         1_GWF-(1,1,1)
 Under-relaxation          2               0.00000                       1_GWF-(2,1,999)
 Linear Solver             3        73    -178.454                         1_GWF-(1,1,1)
 Under-relaxation          3               0.00000                       1_GWF-(2,1,999)
 Linear Solver             4        73    -178.454                         1_GWF-(1,1,1)
 Under-relaxation          4               0.00000                       1_GWF-(2,1,999)
 Linear Solver             5        73    -178.454                         1_GWF-(1,1,1)
 Under-relaxation          5               0.00000                       1_GWF-(2,1,999)
 Linear Solver             6        73    -178.454                         1_GWF-(1,1,1)
 Under-relaxation          6               0.00000                       1_GWF-(2,1,999)
 Linear Solver             7        73    -178.454                         1_GWF-(1,1,1)
 Under-relaxation          7               0.00000                       1_GWF-(2,1,999)
 Linear Solver             8        73    -178.454                         1_GWF-(1,1,1)
 Under-relaxation          8               0.00000                       1_GWF-(2,1,999)
 Linear Solver             9        73    -178.454                         1_GWF-(1,1,1)
 Under-relaxation          9               0.00000                       1_GWF-(2,1,999)
 Linear Solver            10        73    -178.454                         1_GWF-(1,1,1)
 Under-relaxation         10               0.00000                       1_GWF-(2,1,999)
 Linear Solver            11        73    -178.454                         1_GWF-(1,1,1)
 Under-relaxation         11               0.00000                       1_GWF-(2,1,999)
 Linear Solver            12        73    -178.454                         1_GWF-(1,1,1)
 Under-relaxation         12               0.00000                       1_GWF-(2,1,999)
 Linear Solver            13        73    -178.454                         1_GWF-(1,1,1)
 Under-relaxation         13               0.00000                       1_GWF-(2,1,999)
 Linear Solver            14        73    -178.454                         1_GWF-(1,1,1)
 Under-relaxation         14               0.00000                       1_GWF-(2,1,999)
 Linear Solver            15        73    -178.454                         1_GWF-(1,1,1)
 Under-relaxation         15               0.00000                       1_GWF-(2,1,999)
 Linear Solver            16        73    -178.454                         1_GWF-(1,1,1)
 Under-relaxation         16               0.00000                       1_GWF-(2,1,999)
 Linear Solver            17        73    -178.454                         1_GWF-(1,1,1)
 Under-relaxation         17               0.00000                       1_GWF-(2,1,999)
 Linear Solver            18        73    -178.454                         1_GWF-(1,1,1)
 Under-relaxation         18               0.00000                       1_GWF-(2,1,999)
 Linear Solver            19        73    -178.454                         1_GWF-(1,1,1)
 Under-relaxation         19               0.00000                       1_GWF-(2,1,999)
 Linear Solver            20        73    -178.454                         1_GWF-(1,1,1)
 Under-relaxation         20               0.00000                       1_GWF-(2,1,999)
 Linear Solver            21        73    -178.454                         1_GWF-(1,1,1)
 Under-relaxation         21               0.00000                       1_GWF-(2,1,999)
 Linear Solver            22        73    -178.454                         1_GWF-(1,1,1)
 Under-relaxation         22               0.00000                       1_GWF-(2,1,999)
 Linear Solver            23        73    -178.454                         1_GWF-(1,1,1)
 Under-relaxation         23               0.00000                       1_GWF-(2,1,999)
 Linear Solver            24        73    -178.454                         1_GWF-(1,1,1)
 Under-relaxation         24               0.00000                       1_GWF-(2,1,999)
 Linear Solver            25        73    -178.454                         1_GWF-(1,1,1)
 Under-relaxation         25               0.00000                       1_GWF-(2,1,999)
 Linear Solver            26        73    -178.454                         1_GWF-(1,1,1)
 Under-relaxation         26               0.00000                       1_GWF-(2,1,999)
 Linear Solver            27        73    -178.454                         1_GWF-(1,1,1)
 Under-relaxation         27               0.00000                       1_GWF-(2,1,999)
 Linear Solver            28        73    -178.454                         1_GWF-(1,1,1)
 Under-relaxation         28               0.00000                       1_GWF-(2,1,999)
 Linear Solver            29        73    -178.454                         1_GWF-(1,1,1)
 Under-relaxation         29               0.00000                       1_GWF-(2,1,999)
 Linear Solver            30        73    -178.454                         1_GWF-(1,1,1)
 Under-relaxation         30               0.00000                       1_GWF-(2,1,999)
 Linear Solver            31        73    -178.454                         1_GWF-(1,1,1)
 Under-relaxation         31               0.00000                       1_GWF-(2,1,999)
 Linear Solver            32        73    -178.454                         1_GWF-(1,1,1)
 Under-relaxation         32               0.00000                       1_GWF-(2,1,999)
 Linear Solver            33        73    -178.454                         1_GWF-(1,1,1)
 Under-relaxation         33               0.00000                       1_GWF-(2,1,999)
 Linear Solver            34        73    -178.454                         1_GWF-(1,1,1)
 Under-relaxation         34               0.00000                       1_GWF-(2,1,999)
 Linear Solver            35        73    -178.454                         1_GWF-(1,1,1)
 Under-relaxation         35               0.00000                       1_GWF-(2,1,999)
 Linear Solver            36        73    -178.454                         1_GWF-(1,1,1)
 Under-relaxation         36               0.00000                       1_GWF-(2,1,999)
 Linear Solver            37        73    -178.454                         1_GWF-(1,1,1)
 Under-relaxation         37               0.00000                       1_GWF-(2,1,999)
 Linear Solver            38        73    -178.454                         1_GWF-(1,1,1)
 Under-relaxation         38               0.00000                       1_GWF-(2,1,999)
 Linear Solver            39        73    -178.454                         1_GWF-(1,1,1)
 Under-relaxation         39               0.00000                       1_GWF-(2,1,999)
 Linear Solver            40        73    -178.454                         1_GWF-(1,1,1)
 Under-relaxation         40               0.00000                       1_GWF-(2,1,999)
 Linear Solver            41        73    -178.454                         1_GWF-(1,1,1)
 Under-relaxation         41               0.00000                       1_GWF-(2,1,999)
 Linear Solver            42        73    -178.454                         1_GWF-(1,1,1)
 Under-relaxation         42               0.00000                       1_GWF-(2,1,999)
 Linear Solver            43        73    -178.454                         1_GWF-(1,1,1)
 Under-relaxation         43               0.00000                       1_GWF-(2,1,999)
 Linear Solver            44        73    -178.454                         1_GWF-(1,1,1)
 Under-relaxation         44               0.00000                       1_GWF-(2,1,999)
 Linear Solver            45        73    -178.454                         1_GWF-(1,1,1)
 Under-relaxation         45               0.00000                       1_GWF-(2,1,999)
 Linear Solver            46        73    -178.454                         1_GWF-(1,1,1)
 Under-relaxation         46               0.00000                       1_GWF-(2,1,999)
 Linear Solver            47        73    -178.454                         1_GWF-(1,1,1)
 Under-relaxation         47               0.00000                       1_GWF-(2,1,999)
 Linear Solver            48        73    -178.454                         1_GWF-(1,1,1)
 Under-relaxation         48               0.00000                       1_GWF-(2,1,999)
 Linear Solver            49        73    -178.454                         1_GWF-(1,1,1)
 Under-relaxation         49               0.00000                       1_GWF-(2,1,999)
 Linear Solver            50        73    -178.454                         1_GWF-(1,1,1)
 Under-relaxation         50               0.00000                       1_GWF-(2,1,999)
 Linear Solver            51        73    -178.454                         1_GWF-(1,1,1)
 Under-relaxation         51               0.00000                       1_GWF-(2,1,999)
 Linear Solver            52        73    -178.454                         1_GWF-(1,1,1)
 Under-relaxation         52               0.00000                       1_GWF-(2,1,999)
 Linear Solver            53        73    -178.454                         1_GWF-(1,1,1)
 Under-relaxation         53               0.00000                       1_GWF-(2,1,999)
 Linear Solver            54        73    -178.454                         1_GWF-(1,1,1)
 Under-relaxation         54               0.00000                       1_GWF-(2,1,999)
 Linear Solver            55        73    -178.454                         1_GWF-(1,1,1)
 Under-relaxation         55               0.00000                       1_GWF-(2,1,999)
 Linear Solver            56        73    -178.454                         1_GWF-(1,1,1)
 Under-relaxation         56               0.00000                       1_GWF-(2,1,999)
 Linear Solver            57        73    -178.454                         1_GWF-(1,1,1)
 Under-relaxation         57               0.00000                       1_GWF-(2,1,999)
 Linear Solver            58        73    -178.454                         1_GWF-(1,1,1)
 Under-relaxation         58               0.00000                       1_GWF-(2,1,999)
 Linear Solver            59        73    -178.454                         1_GWF-(1,1,1)
 Under-relaxation         59               0.00000                       1_GWF-(2,1,999)
 Linear Solver            60        73    -178.454                         1_GWF-(1,1,1)
 Under-relaxation         60               0.00000                       1_GWF-(2,1,999)
 Linear Solver            61        73    -178.454                         1_GWF-(1,1,1)
 Under-relaxation         61               0.00000                       1_GWF-(2,1,999)
 Linear Solver            62        73    -178.454                         1_GWF-(1,1,1)
 Under-relaxation         62               0.00000                       1_GWF-(2,1,999)
 Linear Solver            63        73    -178.454                         1_GWF-(1,1,1)
 Under-relaxation         63               0.00000                       1_GWF-(2,1,999)
 Linear Solver            64        73    -178.454                         1_GWF-(1,1,1)
 Under-relaxation         64               0.00000                       1_GWF-(2,1,999)
 Linear Solver            65        73    -178.454                         1_GWF-(1,1,1)
 Under-relaxation         65               0.00000                       1_GWF-(2,1,999)
 Linear Solver            66        73    -178.454                         1_GWF-(1,1,1)
 Under-relaxation         66               0.00000                       1_GWF-(2,1,999)
 Linear Solver            67        73    -178.454                         1_GWF-(1,1,1)
 Under-relaxation         67               0.00000                       1_GWF-(2,1,999)
 Linear Solver            68        73    -178.454                         1_GWF-(1,1,1)
 Under-relaxation         68               0.00000                       1_GWF-(2,1,999)
 Linear Solver            69        73    -178.454                         1_GWF-(1,1,1)
 Under-relaxation         69               0.00000                       1_GWF-(2,1,999)
 Linear Solver            70        73    -178.454                         1_GWF-(1,1,1)
 Under-relaxation         70               0.00000                       1_GWF-(2,1,999)
 Linear Solver            71        73    -178.454                         1_GWF-(1,1,1)
 Under-relaxation         71               0.00000                       1_GWF-(2,1,999)
 Linear Solver            72        73    -178.454                         1_GWF-(1,1,1)
 Under-relaxation         72               0.00000                       1_GWF-(2,1,999)
 Linear Solver            73        73    -178.454                         1_GWF-(1,1,1)
 Under-relaxation         73               0.00000                       1_GWF-(2,1,999)
 Linear Solver            74        73    -178.454                         1_GWF-(1,1,1)
 Under-relaxation         74               0.00000                       1_GWF-(2,1,999)
 Linear Solver            75        73    -178.454                         1_GWF-(1,1,1)
 Under-relaxation         75               0.00000                       1_GWF-(2,1,999)
 Linear Solver            76        73    -178.454                         1_GWF-(1,1,1)
 Under-relaxation         76               0.00000                       1_GWF-(2,1,999)
 Linear Solver            77        73    -178.454                         1_GWF-(1,1,1)
 Under-relaxation         77               0.00000                       1_GWF-(2,1,999)
 Linear Solver            78        73    -178.454                         1_GWF-(1,1,1)
 Under-relaxation         78               0.00000                       1_GWF-(2,1,999)
 Linear Solver            79        73    -178.454                         1_GWF-(1,1,1)
 Under-relaxation         79               0.00000                       1_GWF-(2,1,999)
 Linear Solver            80        73    -178.454                         1_GWF-(1,1,1)
 Under-relaxation         80               0.00000                       1_GWF-(2,1,999)
 Linear Solver            81        73    -178.454                         1_GWF-(1,1,1)
 Under-relaxation         81               0.00000                       1_GWF-(2,1,999)
 Linear Solver            82        73    -178.454                         1_GWF-(1,1,1)
 Under-relaxation         82               0.00000                       1_GWF-(2,1,999)
 Linear Solver            83        73    -178.454                         1_GWF-(1,1,1)
 Under-relaxation         83               0.00000                       1_GWF-(2,1,999)
 Linear Solver            84        73    -178.454                         1_GWF-(1,1,1)
 Under-relaxation         84               0.00000                       1_GWF-(2,1,999)
 Linear Solver            85        73    -178.454                         1_GWF-(1,1,1)
 Under-relaxation         85               0.00000                       1_GWF-(2,1,999)
 Linear Solver            86        73    -178.454                         1_GWF-(1,1,1)
 Under-relaxation         86               0.00000                       1_GWF-(2,1,999)
 Linear Solver            87        73    -178.454                         1_GWF-(1,1,1)
 Under-relaxation         87               0.00000                       1_GWF-(2,1,999)
 Linear Solver            88        73    -178.454                         1_GWF-(1,1,1)
 Under-relaxation         88               0.00000                       1_GWF-(2,1,999)
 Linear Solver            89        73    -178.454                         1_GWF-(1,1,1)
 Under-relaxation         89               0.00000                       1_GWF-(2,1,999)
 Linear Solver            90        73    -178.454                         1_GWF-(1,1,1)
 Under-relaxation         90               0.00000                       1_GWF-(2,1,999)
 Linear Solver            91        73    -178.454                         1_GWF-(1,1,1)
 Under-relaxation         91               0.00000                       1_GWF-(2,1,999)
 Linear Solver            92        73    -178.454                         1_GWF-(1,1,1)
 Under-relaxation         92               0.00000                       1_GWF-(2,1,999)
 Linear Solver            93        73    -178.454                         1_GWF-(1,1,1)
 Under-relaxation         93               0.00000                       1_GWF-(2,1,999)
 Linear Solver            94        73    -178.454                         1_GWF-(1,1,1)
 Under-relaxation         94               0.00000                       1_GWF-(2,1,999)
 Linear Solver            95        73    -178.454                         1_GWF-(1,1,1)
 Under-relaxation         95               0.00000                       1_GWF-(2,1,999)
 Linear Solver            96        73    -178.454                         1_GWF-(1,1,1)
 Under-relaxation         96               0.00000                       1_GWF-(2,1,999)
 Linear Solver            97        73    -178.454                         1_GWF-(1,1,1)
 Under-relaxation         97               0.00000                       1_GWF-(2,1,999)
 Linear Solver            98        73    -178.454                         1_GWF-(1,1,1)
 Under-relaxation         98               0.00000                       1_GWF-(2,1,999)
 Linear Solver            99        73    -178.454                         1_GWF-(1,1,1)
 Under-relaxation         99               0.00000                       1_GWF-(2,1,999)
 Linear Solver           100        73    -178.454                         1_GWF-(1,1,1)
 Under-relaxation        100               0.00000                       1_GWF-(2,1,999)
 Linear Solver           101        73    -178.454                         1_GWF-(1,1,1)
 Under-relaxation        101               0.00000                       1_GWF-(2,1,999)
 Linear Solver           102        73    -178.454                         1_GWF-(1,1,1)
 Under-relaxation        102               0.00000                       1_GWF-(2,1,999)
 Linear Solver           103        73    -178.454                         1_GWF-(1,1,1)
 Under-relaxation        103               0.00000                       1_GWF-(2,1,999)
 Linear Solver           104        73    -178.454                         1_GWF-(1,1,1)
 Under-relaxation        104               0.00000                       1_GWF-(2,1,999)
 Linear Solver           105        73    -178.454                         1_GWF-(1,1,1)
 Under-relaxation        105               0.00000                       1_GWF-(2,1,999)
 Linear Solver           106        73    -178.454                         1_GWF-(1,1,1)
 Under-relaxation        106               0.00000                       1_GWF-(2,1,999)
 Linear Solver           107        73    -178.454                         1_GWF-(1,1,1)
 Under-relaxation        107               0.00000                       1_GWF-(2,1,999)
 Linear Solver           108        73    -178.454                         1_GWF-(1,1,1)
 Under-relaxation        108               0.00000                       1_GWF-(2,1,999)
 Linear Solver           109        73    -178.454                         1_GWF-(1,1,1)
 Under-relaxation        109               0.00000                       1_GWF-(2,1,999)
 Linear Solver           110        73    -178.454                         1_GWF-(1,1,1)
 Under-relaxation        110               0.00000                       1_GWF-(2,1,999)
 Linear Solver           111        73    -178.454                         1_GWF-(1,1,1)
 Under-relaxation        111               0.00000                       1_GWF-(2,1,999)
 Linear Solver           112        73    -178.454                         1_GWF-(1,1,1)
 Under-relaxation        112               0.00000                       1_GWF-(2,1,999)
 Linear Solver           113        73    -178.454                         1_GWF-(1,1,1)
 Under-relaxation        113               0.00000                       1_GWF-(2,1,999)
 Linear Solver           114        73    -178.454                         1_GWF-(1,1,1)
 Under-relaxation        114               0.00000                       1_GWF-(2,1,999)
 Linear Solver           115        73    -178.454                         1_GWF-(1,1,1)
 Under-relaxation        115               0.00000                       1_GWF-(2,1,999)
 Linear Solver           116        73    -178.454                         1_GWF-(1,1,1)
 Under-relaxation        116               0.00000                       1_GWF-(2,1,999)
 Linear Solver           117        73    -178.454                         1_GWF-(1,1,1)
 Under-relaxation        117               0.00000                       1_GWF-(2,1,999)
 Linear Solver           118        73    -178.454                         1_GWF-(1,1,1)
 Under-relaxation        118               0.00000                       1_GWF-(2,1,999)
 Linear Solver           119        73    -178.454                         1_GWF-(1,1,1)
 Under-relaxation        119               0.00000                       1_GWF-(2,1,999)
 Linear Solver           120        73    -178.454                         1_GWF-(1,1,1)
 Under-relaxation        120               0.00000                       1_GWF-(2,1,999)
 Linear Solver           121        73    -178.454                         1_GWF-(1,1,1)
 Under-relaxation        121               0.00000                       1_GWF-(2,1,999)
 Linear Solver           122        73    -178.454                         1_GWF-(1,1,1)
 Under-relaxation        122               0.00000                       1_GWF-(2,1,999)
 Linear Solver           123        73    -178.454                         1_GWF-(1,1,1)
 Under-relaxation        123               0.00000                       1_GWF-(2,1,999)
 Linear Solver           124        73    -178.454                         1_GWF-(1,1,1)
 Under-relaxation        124               0.00000                       1_GWF-(2,1,999)
 Linear Solver           125        73    -178.454                         1_GWF-(1,1,1)
 Under-relaxation        125               0.00000                       1_GWF-(2,1,999)
 Linear Solver           126        73    -178.454                         1_GWF-(1,1,1)
 Under-relaxation        126               0.00000                       1_GWF-(2,1,999)
 Linear Solver           127        73    -178.454                         1_GWF-(1,1,1)
 Under-relaxation        127               0.00000                       1_GWF-(2,1,999)
 Linear Solver           128        73    -178.454                         1_GWF-(1,1,1)
 Under-relaxation        128               0.00000                       1_GWF-(2,1,999)
 Linear Solver           129        73    -178.454                         1_GWF-(1,1,1)
 Under-relaxation        129               0.00000                       1_GWF-(2,1,999)
 Linear Solver           130        73    -178.454                         1_GWF-(1,1,1)
 Under-relaxation        130               0.00000                       1_GWF-(2,1,999)
 Linear Solver           131        73    -178.454                         1_GWF-(1,1,1)
 Under-relaxation        131               0.00000                       1_GWF-(2,1,999)
 Linear Solver           132        73    -178.454                         1_GWF-(1,1,1)
 Under-relaxation        132               0.00000                       1_GWF-(2,1,999)
 Linear Solver           133        73    -178.454                         1_GWF-(1,1,1)
 Under-relaxation        133               0.00000                       1_GWF-(2,1,999)
 Linear Solver           134        73    -178.454                         1_GWF-(1,1,1)
 Under-relaxation        134               0.00000                       1_GWF-(2,1,999)
 Linear Solver           135        73    -178.454                         1_GWF-(1,1,1)
 Under-relaxation        135               0.00000                       1_GWF-(2,1,999)
 Linear Solver           136        73    -178.454                         1_GWF-(1,1,1)
 Under-relaxation        136               0.00000                       1_GWF-(2,1,999)
 Linear Solver           137        73    -178.454                         1_GWF-(1,1,1)
 Under-relaxation        137               0.00000                       1_GWF-(2,1,999)
 Linear Solver           138        73    -178.454                         1_GWF-(1,1,1)
 Under-relaxation        138               0.00000                       1_GWF-(2,1,999)
 Linear Solver           139        73    -178.454                         1_GWF-(1,1,1)
 Under-relaxation        139               0.00000                       1_GWF-(2,1,999)
 Linear Solver           140        73    -178.454                         1_GWF-(1,1,1)
 Under-relaxation        140               0.00000                       1_GWF-(2,1,999)
 Linear Solver           141        73    -178.454                         1_GWF-(1,1,1)
 Under-relaxation        141               0.00000                       1_GWF-(2,1,999)
 Linear Solver           142        73    -178.454                         1_GWF-(1,1,1)
 Under-relaxation        142               0.00000                       1_GWF-(2,1,999)
 Linear Solver           143        73    -178.454                         1_GWF-(1,1,1)
 Under-relaxation        143               0.00000                       1_GWF-(2,1,999)
 Linear Solver           144        73    -178.454                         1_GWF-(1,1,1)
 Under-relaxation        144               0.00000                       1_GWF-(2,1,999)
 Linear Solver           145        73    -178.454                         1_GWF-(1,1,1)
 Under-relaxation        145               0.00000                       1_GWF-(2,1,999)
 Linear Solver           146        73    -178.454                         1_GWF-(1,1,1)
 Under-relaxation        146               0.00000                       1_GWF-(2,1,999)
 Linear Solver           147        73    -178.454                         1_GWF-(1,1,1)
 Under-relaxation        147               0.00000                       1_GWF-(2,1,999)
 Linear Solver           148        73    -178.454                         1_GWF-(1,1,1)
 Under-relaxation        148               0.00000                       1_GWF-(2,1,999)
 Linear Solver           149        73    -178.454                         1_GWF-(1,1,1)
 Under-relaxation        149               0.00000                       1_GWF-(2,1,999)
 Linear Solver           150        73    -178.454                         1_GWF-(1,1,1)
 Under-relaxation        150               0.00000                       1_GWF-(2,1,999)
 Linear Solver           151        73    -178.454                         1_GWF-(1,1,1)
 Under-relaxation        151               0.00000                       1_GWF-(2,1,999)
 Linear Solver           152        73    -178.454                         1_GWF-(1,1,1)
 Under-relaxation        152               0.00000                       1_GWF-(2,1,999)
 Linear Solver           153        73    -178.454                         1_GWF-(1,1,1)
 Under-relaxation        153               0.00000                       1_GWF-(2,1,999)
 Linear Solver           154        73    -178.454                         1_GWF-(1,1,1)
 Under-relaxation        154               0.00000                       1_GWF-(2,1,999)
 Linear Solver           155        73    -178.454                         1_GWF-(1,1,1)
 Under-relaxation        155               0.00000                       1_GWF-(2,1,999)
 Linear Solver           156        73    -178.454                         1_GWF-(1,1,1)
 Under-relaxation        156               0.00000                       1_GWF-(2,1,999)
 Linear Solver           157        73    -178.454                         1_GWF-(1,1,1)
 Under-relaxation        157               0.00000                       1_GWF-(2,1,999)
 Linear Solver           158        73    -178.454                         1_GWF-(1,1,1)
 Under-relaxation        158               0.00000                       1_GWF-(2,1,999)
 Linear Solver           159        73    -178.454                         1_GWF-(1,1,1)
 Under-relaxation        159               0.00000                       1_GWF-(2,1,999)
 Linear Solver           160        73    -178.454                         1_GWF-(1,1,1)
 Under-relaxation        160               0.00000                       1_GWF-(2,1,999)
 Linear Solver           161        73    -178.454                         1_GWF-(1,1,1)
 Under-relaxation        161               0.00000                       1_GWF-(2,1,999)
 Linear Solver           162        73    -178.454                         1_GWF-(1,1,1)
 Under-relaxation        162               0.00000                       1_GWF-(2,1,999)
 Linear Solver           163        73    -178.454                         1_GWF-(1,1,1)
 Under-relaxation        163               0.00000                       1_GWF-(2,1,999)
 Linear Solver           164        73    -178.454                         1_GWF-(1,1,1)
 Under-relaxation        164               0.00000                       1_GWF-(2,1,999)
 Linear Solver           165        73    -178.454                         1_GWF-(1,1,1)
 Under-relaxation        165               0.00000                       1_GWF-(2,1,999)
 Linear Solver           166        73    -178.454                         1_GWF-(1,1,1)
 Under-relaxation        166               0.00000                       1_GWF-(2,1,999)
 Linear Solver           167        73    -178.454                         1_GWF-(1,1,1)
 Under-relaxation        167               0.00000                       1_GWF-(2,1,999)
 Linear Solver           168        73    -178.454                         1_GWF-(1,1,1)
 Under-relaxation        168               0.00000                       1_GWF-(2,1,999)
 Linear Solver           169        73    -178.454                         1_GWF-(1,1,1)
 Under-relaxation        169               0.00000                       1_GWF-(2,1,999)
 Linear Solver           170        73    -178.454                         1_GWF-(1,1,1)
 Under-relaxation        170               0.00000                       1_GWF-(2,1,999)
 Linear Solver           171        73    -178.454                         1_GWF-(1,1,1)
 Under-relaxation        171               0.00000                       1_GWF-(2,1,999)
 Linear Solver           172        73    -178.454                         1_GWF-(1,1,1)
 Under-relaxation        172               0.00000                       1_GWF-(2,1,999)
 Linear Solver           173        73    -178.454                         1_GWF-(1,1,1)
 Under-relaxation        173               0.00000                       1_GWF-(2,1,999)
 Linear Solver           174        73    -178.454                         1_GWF-(1,1,1)
 Under-relaxation        174               0.00000                       1_GWF-(2,1,999)
 Linear Solver           175        73    -178.454                         1_GWF-(1,1,1)
 Under-relaxation        175               0.00000                       1_GWF-(2,1,999)
 Linear Solver           176        73    -178.454                         1_GWF-(1,1,1)
 Under-relaxation        176               0.00000                       1_GWF-(2,1,999)
 Linear Solver           177        73    -178.454                         1_GWF-(1,1,1)
 Under-relaxation        177               0.00000                       1_GWF-(2,1,999)
 Linear Solver           178        73    -178.454                         1_GWF-(1,1,1)
 Under-relaxation        178               0.00000                       1_GWF-(2,1,999)
 Linear Solver           179        73    -178.454                         1_GWF-(1,1,1)
 Under-relaxation        179               0.00000                       1_GWF-(2,1,999)
 Linear Solver           180        73    -178.454                         1_GWF-(1,1,1)
 Under-relaxation        180               0.00000                       1_GWF-(2,1,999)
 Linear Solver           181        73    -178.454                         1_GWF-(1,1,1)
 Under-relaxation        181               0.00000                       1_GWF-(2,1,999)
 Linear Solver           182        73    -178.454                         1_GWF-(1,1,1)
 Under-relaxation        182               0.00000                       1_GWF-(2,1,999)
 Linear Solver           183        73    -178.454                         1_GWF-(1,1,1)
 Under-relaxation        183               0.00000                       1_GWF-(2,1,999)
 Linear Solver           184        73    -178.454                         1_GWF-(1,1,1)
 Under-relaxation        184               0.00000                       1_GWF-(2,1,999)
 Linear Solver           185        73    -178.454                         1_GWF-(1,1,1)
 Under-relaxation        185               0.00000                       1_GWF-(2,1,999)
 Linear Solver           186        73    -178.454                         1_GWF-(1,1,1)
 Under-relaxation        186               0.00000                       1_GWF-(2,1,999)
 Linear Solver           187        73    -178.454                         1_GWF-(1,1,1)
 Under-relaxation        187               0.00000                       1_GWF-(2,1,999)
 Linear Solver           188        73    -178.454                         1_GWF-(1,1,1)
 Under-relaxation        188               0.00000                       1_GWF-(2,1,999)
 Linear Solver           189        73    -178.454                         1_GWF-(1,1,1)
 Under-relaxation        189               0.00000                       1_GWF-(2,1,999)
 Linear Solver           190        73    -178.454                         1_GWF-(1,1,1)
 Under-relaxation        190               0.00000                       1_GWF-(2,1,999)
 Linear Solver           191        73    -178.454                         1_GWF-(1,1,1)
 Under-relaxation        191               0.00000                       1_GWF-(2,1,999)
 Linear Solver           192        73    -178.454                         1_GWF-(1,1,1)
 Under-relaxation        192               0.00000                       1_GWF-(2,1,999)
 Linear Solver           193        73    -178.454                         1_GWF-(1,1,1)
 Under-relaxation        193               0.00000                       1_GWF-(2,1,999)
 Linear Solver           194        73    -178.454                         1_GWF-(1,1,1)
 Under-relaxation        194               0.00000                       1_GWF-(2,1,999)
 Linear Solver           195        73    -178.454                         1_GWF-(1,1,1)
 Under-relaxation        195               0.00000                       1_GWF-(2,1,999)
 Linear Solver           196        73    -178.454                         1_GWF-(1,1,1)
 Under-relaxation        196               0.00000                       1_GWF-(2,1,999)
 Linear Solver           197        73    -178.454                         1_GWF-(1,1,1)
 Under-relaxation        197               0.00000                       1_GWF-(2,1,999)
 Linear Solver           198        73    -178.454                         1_GWF-(1,1,1)
 Under-relaxation        198               0.00000                       1_GWF-(2,1,999)
 Linear Solver           199        73    -178.454                         1_GWF-(1,1,1)
 Under-relaxation        199               0.00000                       1_GWF-(2,1,999)
 Linear Solver           200        73    -178.454                         1_GWF-(1,1,1)
 Under-relaxation        200               0.00000                       1_GWF-(2,1,999)
 Linear Solver           201        73    -178.454                         1_GWF-(1,1,1)
 Under-relaxation        201               0.00000                       1_GWF-(2,1,999)
 Linear Solver           202        73    -178.454                         1_GWF-(1,1,1)
 Under-relaxation        202               0.00000                       1_GWF-(2,1,999)
 Linear Solver           203        73    -178.454                         1_GWF-(1,1,1)
 Under-relaxation        203               0.00000                       1_GWF-(2,1,999)
 Linear Solver           204        73    -178.454                         1_GWF-(1,1,1)
 Under-relaxation        204               0.00000                       1_GWF-(2,1,999)
 Linear Solver           205        73    -178.454                         1_GWF-(1,1,1)
 Under-relaxation        205               0.00000                       1_GWF-(2,1,999)
 Linear Solver           206        73    -178.454                         1_GWF-(1,1,1)
 Under-relaxation        206               0.00000                       1_GWF-(2,1,999)
 Linear Solver           207        73    -178.454                         1_GWF-(1,1,1)
 Under-relaxation        207               0.00000                       1_GWF-(2,1,999)
 Linear Solver           208        73    -178.454                         1_GWF-(1,1,1)
 Under-relaxation        208               0.00000                       1_GWF-(2,1,999)
 Linear Solver           209        73    -178.454                         1_GWF-(1,1,1)
 Under-relaxation        209               0.00000                       1_GWF-(2,1,999)
 Linear Solver           210        73    -178.454                         1_GWF-(1,1,1)
 Under-relaxation        210               0.00000                       1_GWF-(2,1,999)
 Linear Solver           211        73    -178.454                         1_GWF-(1,1,1)
 Under-relaxation        211               0.00000                       1_GWF-(2,1,999)
 Linear Solver           212        73    -178.454                         1_GWF-(1,1,1)
 Under-relaxation        212               0.00000                       1_GWF-(2,1,999)
 Linear Solver           213        73    -178.454                         1_GWF-(1,1,1)
 Under-relaxation        213               0.00000                       1_GWF-(2,1,999)
 Linear Solver           214        73    -178.454                         1_GWF-(1,1,1)
 Under-relaxation        214               0.00000                       1_GWF-(2,1,999)
 Linear Solver           215        73    -178.454                         1_GWF-(1,1,1)
 Under-relaxation        215               0.00000                       1_GWF-(2,1,999)
 Linear Solver           216        73    -178.454                         1_GWF-(1,1,1)
 Under-relaxation        216               0.00000                       1_GWF-(2,1,999)
 Linear Solver           217        73    -178.454                         1_GWF-(1,1,1)
 Under-relaxation        217               0.00000                       1_GWF-(2,1,999)
 Linear Solver           218        73    -178.454                         1_GWF-(1,1,1)
 Under-relaxation        218               0.00000                       1_GWF-(2,1,999)
 Linear Solver           219        73    -178.454                         1_GWF-(1,1,1)
 Under-relaxation        219               0.00000                       1_GWF-(2,1,999)
 Linear Solver           220        73    -178.454                         1_GWF-(1,1,1)
 Under-relaxation        220               0.00000                       1_GWF-(2,1,999)
 Linear Solver           221        73    -178.454                         1_GWF-(1,1,1)
 Under-relaxation        221               0.00000                       1_GWF-(2,1,999)
 Linear Solver           222        73    -178.454                         1_GWF-(1,1,1)
 Under-relaxation        222               0.00000                       1_GWF-(2,1,999)
 Linear Solver           223        73    -178.454                         1_GWF-(1,1,1)
 Under-relaxation        223               0.00000                       1_GWF-(2,1,999)
 Linear Solver           224        73    -178.454                         1_GWF-(1,1,1)
 Under-relaxation        224               0.00000                       1_GWF-(2,1,999)
 Linear Solver           225        73    -178.454                         1_GWF-(1,1,1)
 Under-relaxation        225               0.00000                       1_GWF-(2,1,999)
 Linear Solver           226        73    -178.454                         1_GWF-(1,1,1)
 Under-relaxation        226               0.00000                       1_GWF-(2,1,999)
 Linear Solver           227        73    -178.454                         1_GWF-(1,1,1)
 Under-relaxation        227               0.00000                       1_GWF-(2,1,999)
 Linear Solver           228        73    -178.454                         1_GWF-(1,1,1)
 Under-relaxation        228               0.00000                       1_GWF-(2,1,999)
 Linear Solver           229        73    -178.454                         1_GWF-(1,1,1)
 Under-relaxation        229               0.00000                       1_GWF-(2,1,999)
 Linear Solver           230        73    -178.454                         1_GWF-(1,1,1)
 Under-relaxation        230               0.00000                       1_GWF-(2,1,999)
 Linear Solver           231        73    -178.454                         1_GWF-(1,1,1)
 Under-relaxation        231               0.00000                       1_GWF-(2,1,999)
 Linear Solver           232        73    -178.454                         1_GWF-(1,1,1)
 Under-relaxation        232               0.00000                       1_GWF-(2,1,999)
 Linear Solver           233        73    -178.454                         1_GWF-(1,1,1)
 Under-relaxation        233               0.00000                       1_GWF-(2,1,999)
 Linear Solver           234        73    -178.454                         1_GWF-(1,1,1)
 Under-relaxation        234               0.00000                       1_GWF-(2,1,999)
 Linear Solver           235        73    -178.454                         1_GWF-(1,1,1)
 Under-relaxation        235               0.00000                       1_GWF-(2,1,999)
 Linear Solver           236        73    -178.454                         1_GWF-(1,1,1)
 Under-relaxation        236               0.00000                       1_GWF-(2,1,999)
 Linear Solver           237        73    -178.454                         1_GWF-(1,1,1)
 Under-relaxation        237               0.00000                       1_GWF-(2,1,999)
 Linear Solver           238        73    -178.454                         1_GWF-(1,1,1)
 Under-relaxation        238               0.00000                       1_GWF-(2,1,999)
 Linear Solver           239        73    -178.454                         1_GWF-(1,1,1)
 Under-relaxation        239               0.00000                       1_GWF-(2,1,999)
 Linear Solver           240        73    -178.454                         1_GWF-(1,1,1)
 Under-relaxation        240               0.00000                       1_GWF-(2,1,999)
 Linear Solver           241        73    -178.454                         1_GWF-(1,1,1)
 Under-relaxation        241               0.00000                       1_GWF-(2,1,999)
 Linear Solver           242        73    -178.454                         1_GWF-(1,1,1)
 Under-relaxation        242               0.00000                       1_GWF-(2,1,999)
 Linear Solver           243        73    -178.454                         1_GWF-(1,1,1)
 Under-relaxation        243               0.00000                       1_GWF-(2,1,999)
 Linear Solver           244        73    -178.454                         1_GWF-(1,1,1)
 Under-relaxation        244               0.00000                       1_GWF-(2,1,999)
 Linear Solver           245        73    -178.454                         1_GWF-(1,1,1)
 Under-relaxation        245               0.00000                       1_GWF-(2,1,999)
 Linear Solver           246        73    -178.454                         1_GWF-(1,1,1)
 Under-relaxation        246               0.00000                       1_GWF-(2,1,999)
 Linear Solver           247        73    -178.454                         1_GWF-(1,1,1)
 Under-relaxation        247               0.00000                       1_GWF-(2,1,999)
 Linear Solver           248        73    -178.454                         1_GWF-(1,1,1)
 Under-relaxation        248               0.00000                       1_GWF-(2,1,999)
 Linear Solver           249        73    -178.454                         1_GWF-(1,1,1)
 Under-relaxation        249               0.00000                       1_GWF-(2,1,999)
 Linear Solver           250        73    -178.454                         1_GWF-(1,1,1)
 Under-relaxation        250               0.00000                       1_GWF-(2,1,999)
 Linear Solver           251        73    -178.454                         1_GWF-(1,1,1)
 Under-relaxation        251               0.00000                       1_GWF-(2,1,999)
 Linear Solver           252        73    -178.454                         1_GWF-(1,1,1)
 Under-relaxation        252               0.00000                       1_GWF-(2,1,999)
 Linear Solver           253        73    -178.454                         1_GWF-(1,1,1)
 Under-relaxation        253               0.00000                       1_GWF-(2,1,999)
 Linear Solver           254        73    -178.454                         1_GWF-(1,1,1)
 Under-relaxation        254               0.00000                       1_GWF-(2,1,999)
 Linear Solver           255        73    -178.454                         1_GWF-(1,1,1)
 Under-relaxation        255               0.00000                       1_GWF-(2,1,999)
 Linear Solver           256        73    -178.454                         1_GWF-(1,1,1)
 Under-relaxation        256               0.00000                       1_GWF-(2,1,999)
 Linear Solver           257        73    -178.454                         1_GWF-(1,1,1)
 Under-relaxation        257               0.00000                       1_GWF-(2,1,999)
 Linear Solver           258        73    -178.454                         1_GWF-(1,1,1)
 Under-relaxation        258               0.00000                       1_GWF-(2,1,999)
 Linear Solver           259        73    -178.454                         1_GWF-(1,1,1)
 Under-relaxation        259               0.00000                       1_GWF-(2,1,999)
 Linear Solver           260        73    -178.454                         1_GWF-(1,1,1)
 Under-relaxation        260               0.00000                       1_GWF-(2,1,999)
 Linear Solver           261        73    -178.454                         1_GWF-(1,1,1)
 Under-relaxation        261               0.00000                       1_GWF-(2,1,999)
 Linear Solver           262        73    -178.454                         1_GWF-(1,1,1)
 Under-relaxation        262               0.00000                       1_GWF-(2,1,999)
 Linear Solver           263        73    -178.454                         1_GWF-(1,1,1)
 Under-relaxation        263               0.00000                       1_GWF-(2,1,999)
 Linear Solver           264        73    -178.454                         1_GWF-(1,1,1)
 Under-relaxation        264               0.00000                       1_GWF-(2,1,999)
 Linear Solver           265        73    -178.454                         1_GWF-(1,1,1)
 Under-relaxation        265               0.00000                       1_GWF-(2,1,999)
 Linear Solver           266        73    -178.454                         1_GWF-(1,1,1)
 Under-relaxation        266               0.00000                       1_GWF-(2,1,999)
 Linear Solver           267        73    -178.454                         1_GWF-(1,1,1)
 Under-relaxation        267               0.00000                       1_GWF-(2,1,999)
 Linear Solver           268        73    -178.454                         1_GWF-(1,1,1)
 Under-relaxation        268               0.00000                       1_GWF-(2,1,999)
 Linear Solver           269        73    -178.454                         1_GWF-(1,1,1)
 Under-relaxation        269               0.00000                       1_GWF-(2,1,999)
 Linear Solver           270        73    -178.454                         1_GWF-(1,1,1)
 Under-relaxation        270               0.00000                       1_GWF-(2,1,999)
 Linear Solver           271        73    -178.454                         1_GWF-(1,1,1)
 Under-relaxation        271               0.00000                       1_GWF-(2,1,999)
 Linear Solver           272        73    -178.454                         1_GWF-(1,1,1)
 Under-relaxation        272               0.00000                       1_GWF-(2,1,999)
 Linear Solver           273        73    -178.454                         1_GWF-(1,1,1)
 Under-relaxation        273               0.00000                       1_GWF-(2,1,999)
 Linear Solver           274        73    -178.454                         1_GWF-(1,1,1)
 Under-relaxation        274               0.00000                       1_GWF-(2,1,999)
 Linear Solver           275        73    -178.454                         1_GWF-(1,1,1)
 Under-relaxation        275               0.00000                       1_GWF-(2,1,999)
 Linear Solver           276        73    -178.454                         1_GWF-(1,1,1)
 Under-relaxation        276               0.00000                       1_GWF-(2,1,999)
 Linear Solver           277        73    -178.454                         1_GWF-(1,1,1)
 Under-relaxation        277               0.00000                       1_GWF-(2,1,999)
 Linear Solver           278        73    -178.454                         1_GWF-(1,1,1)
 Under-relaxation        278               0.00000                       1_GWF-(2,1,999)
 Linear Solver           279        73    -178.454                         1_GWF-(1,1,1)
 Under-relaxation        279               0.00000                       1_GWF-(2,1,999)
 Linear Solver           280        73    -178.454                         1_GWF-(1,1,1)
 Under-relaxation        280               0.00000                       1_GWF-(2,1,999)
 Linear Solver           281        73    -178.454                         1_GWF-(1,1,1)
 Under-relaxation        281               0.00000                       1_GWF-(2,1,999)
 Linear Solver           282        73    -178.454                         1_GWF-(1,1,1)
 Under-relaxation        282               0.00000                       1_GWF-(2,1,999)
 Linear Solver           283        73    -178.454                         1_GWF-(1,1,1)
 Under-relaxation        283               0.00000                       1_GWF-(2,1,999)
 Linear Solver           284        73    -178.454                         1_GWF-(1,1,1)
 Under-relaxation        284               0.00000                       1_GWF-(2,1,999)
 Linear Solver           285        73    -178.454                         1_GWF-(1,1,1)
 Under-relaxation        285               0.00000                       1_GWF-(2,1,999)
 Linear Solver           286        73    -178.454                         1_GWF-(1,1,1)
 Under-relaxation        286               0.00000                       1_GWF-(2,1,999)
 Linear Solver           287        73    -178.454                         1_GWF-(1,1,1)
 Under-relaxation        287               0.00000                       1_GWF-(2,1,999)
 Linear Solver           288        73    -178.454                         1_GWF-(1,1,1)
 Under-relaxation        288               0.00000                       1_GWF-(2,1,999)
 Linear Solver           289        73    -178.454                         1_GWF-(1,1,1)
 Under-relaxation        289               0.00000                       1_GWF-(2,1,999)
 Linear Solver           290        73    -178.454                         1_GWF-(1,1,1)
 Under-relaxation        290               0.00000                       1_GWF-(2,1,999)
 Linear Solver           291        73    -178.454                         1_GWF-(1,1,1)
 Under-relaxation        291               0.00000                       1_GWF-(2,1,999)
 Linear Solver           292        73    -178.454                         1_GWF-(1,1,1)
 Under-relaxation        292               0.00000                       1_GWF-(2,1,999)
 Linear Solver           293        73    -178.454                         1_GWF-(1,1,1)
 Under-relaxation        293               0.00000                       1_GWF-(2,1,999)
 Linear Solver           294        73    -178.454                         1_GWF-(1,1,1)
 Under-relaxation        294               0.00000                       1_GWF-(2,1,999)
 Linear Solver           295        73    -178.454                         1_GWF-(1,1,1)
 Under-relaxation        295               0.00000                       1_GWF-(2,1,999)
 Linear Solver           296        73    -178.454                         1_GWF-(1,1,1)
 Under-relaxation        296               0.00000                       1_GWF-(2,1,999)
 Linear Solver           297        73    -178.454                         1_GWF-(1,1,1)
 Under-relaxation        297               0.00000                       1_GWF-(2,1,999)
 Linear Solver           298        73    -178.454                         1_GWF-(1,1,1)
 Under-relaxation        298               0.00000                       1_GWF-(2,1,999)
 Linear Solver           299        73    -178.454                         1_GWF-(1,1,1)
 Under-relaxation        299               0.00000                       1_GWF-(2,1,999)
 Linear Solver           300        73    -178.454                         1_GWF-(1,1,1)
 Under-relaxation        300               0.00000                       1_GWF-(2,1,999)
 Linear Solver           301        73    -178.454                         1_GWF-(1,1,1)
 Under-relaxation        301               0.00000                       1_GWF-(2,1,999)
 Linear Solver           302        73    -178.454                         1_GWF-(1,1,1)
 Under-relaxation        302               0.00000                       1_GWF-(2,1,999)
 Linear Solver           303        73    -178.454                         1_GWF-(1,1,1)
 Under-relaxation        303               0.00000                       1_GWF-(2,1,999)
 Linear Solver           304        73    -178.454                         1_GWF-(1,1,1)
 Under-relaxation        304               0.00000                       1_GWF-(2,1,999)
 Linear Solver           305        73    -178.454                         1_GWF-(1,1,1)
 Under-relaxation        305               0.00000                       1_GWF-(2,1,999)
 Linear Solver           306        73    -178.454                         1_GWF-(1,1,1)
 Under-relaxation        306               0.00000                       1_GWF-(2,1,999)
 Linear Solver           307        73    -178.454                         1_GWF-(1,1,1)
 Under-relaxation        307               0.00000                       1_GWF-(2,1,999)
 Linear Solver           308        73    -178.454                         1_GWF-(1,1,1)
 Under-relaxation        308               0.00000                       1_GWF-(2,1,999)
 Linear Solver           309        73    -178.454                         1_GWF-(1,1,1)
 Under-relaxation        309               0.00000                       1_GWF-(2,1,999)
 Linear Solver           310        73    -178.454                         1_GWF-(1,1,1)
 Under-relaxation        310               0.00000                       1_GWF-(2,1,999)
 Linear Solver           311        73    -178.454                         1_GWF-(1,1,1)
 Under-relaxation        311               0.00000                       1_GWF-(2,1,999)
 Linear Solver           312        73    -178.454                         1_GWF-(1,1,1)
 Under-relaxation        312               0.00000                       1_GWF-(2,1,999)
 Linear Solver           313        73    -178.454                         1_GWF-(1,1,1)
 Under-relaxation        313               0.00000                       1_GWF-(2,1,999)
 Linear Solver           314        73    -178.454                         1_GWF-(1,1,1)
 Under-relaxation        314               0.00000                       1_GWF-(2,1,999)
 Linear Solver           315        73    -178.454                         1_GWF-(1,1,1)
 Under-relaxation        315               0.00000                       1_GWF-(2,1,999)
 Linear Solver           316        73    -178.454                         1_GWF-(1,1,1)
 Under-relaxation        316               0.00000                       1_GWF-(2,1,999)
 Linear Solver           317        73    -178.454                         1_GWF-(1,1,1)
 Under-relaxation        317               0.00000                       1_GWF-(2,1,999)
 Linear Solver           318        73    -178.454                         1_GWF-(1,1,1)
 Under-relaxation        318               0.00000                       1_GWF-(2,1,999)
 Linear Solver           319        73    -178.454                         1_GWF-(1,1,1)
 Under-relaxation        319               0.00000                       1_GWF-(2,1,999)
 Linear Solver           320        73    -178.454                         1_GWF-(1,1,1)
 Under-relaxation        320               0.00000                       1_GWF-(2,1,999)
 Linear Solver           321        73    -178.454                         1_GWF-(1,1,1)
 Under-relaxation        321               0.00000                       1_GWF-(2,1,999)
 Linear Solver           322        73    -178.454                         1_GWF-(1,1,1)
 Under-relaxation        322               0.00000                       1_GWF-(2,1,999)
 Linear Solver           323        73    -178.454                         1_GWF-(1,1,1)
 Under-relaxation        323               0.00000                       1_GWF-(2,1,999)
 Linear Solver           324        73    -178.454                         1_GWF-(1,1,1)
 Under-relaxation        324               0.00000                       1_GWF-(2,1,999)
 Linear Solver           325        73    -178.454                         1_GWF-(1,1,1)
 Under-relaxation        325               0.00000                       1_GWF-(2,1,999)
 Linear Solver           326        73    -178.454                         1_GWF-(1,1,1)
 Under-relaxation        326               0.00000                       1_GWF-(2,1,999)
 Linear Solver           327        73    -178.454                         1_GWF-(1,1,1)
 Under-relaxation        327               0.00000                       1_GWF-(2,1,999)
 Linear Solver           328        73    -178.454                         1_GWF-(1,1,1)
 Under-relaxation        328               0.00000                       1_GWF-(2,1,999)
 Linear Solver           329        73    -178.454                         1_GWF-(1,1,1)
 Under-relaxation        329               0.00000                       1_GWF-(2,1,999)
 Linear Solver           330        73    -178.454                         1_GWF-(1,1,1)
 Under-relaxation        330               0.00000                       1_GWF-(2,1,999)
 Linear Solver           331        73    -178.454                         1_GWF-(1,1,1)
 Under-relaxation        331               0.00000                       1_GWF-(2,1,999)
 Linear Solver           332        73    -178.454                         1_GWF-(1,1,1)
 Under-relaxation        332               0.00000                       1_GWF-(2,1,999)
 Linear Solver           333        73    -178.454                         1_GWF-(1,1,1)
 Under-relaxation        333               0.00000                       1_GWF-(2,1,999)
 Linear Solver           334        73    -178.454                         1_GWF-(1,1,1)
 Under-relaxation        334               0.00000                       1_GWF-(2,1,999)
 Linear Solver           335        73    -178.454                         1_GWF-(1,1,1)
 Under-relaxation        335               0.00000                       1_GWF-(2,1,999)
 Linear Solver           336        73    -178.454                         1_GWF-(1,1,1)
 Under-relaxation        336               0.00000                       1_GWF-(2,1,999)
 Linear Solver           337        73    -178.454                         1_GWF-(1,1,1)
 Under-relaxation        337               0.00000                       1_GWF-(2,1,999)
 Linear Solver           338        73    -178.454                         1_GWF-(1,1,1)
 Under-relaxation        338               0.00000                       1_GWF-(2,1,999)
 Linear Solver           339        73    -178.454                         1_GWF-(1,1,1)
 Under-relaxation        339               0.00000                       1_GWF-(2,1,999)
 Linear Solver           340        73    -178.454                         1_GWF-(1,1,1)
 Under-relaxation        340               0.00000                       1_GWF-(2,1,999)
 Linear Solver           341        73    -178.454                         1_GWF-(1,1,1)
 Under-relaxation        341               0.00000                       1_GWF-(2,1,999)
 Linear Solver           342        73    -178.454                         1_GWF-(1,1,1)
 Under-relaxation        342               0.00000                       1_GWF-(2,1,999)
 Linear Solver           343        73    -178.454                         1_GWF-(1,1,1)
 Under-relaxation        343               0.00000                       1_GWF-(2,1,999)
 Linear Solver           344        73    -178.454                         1_GWF-(1,1,1)
 Under-relaxation        344               0.00000                       1_GWF-(2,1,999)
 Linear Solver           345        73    -178.454                         1_GWF-(1,1,1)
 Under-relaxation        345               0.00000                       1_GWF-(2,1,999)
 Linear Solver           346        73    -178.454                         1_GWF-(1,1,1)
 Under-relaxation        346               0.00000                       1_GWF-(2,1,999)
 Linear Solver           347        73    -178.454                         1_GWF-(1,1,1)
 Under-relaxation        347               0.00000                       1_GWF-(2,1,999)
 Linear Solver           348        73    -178.454                         1_GWF-(1,1,1)
 Under-relaxation        348               0.00000                       1_GWF-(2,1,999)
 Linear Solver           349        73    -178.454                         1_GWF-(1,1,1)
 Under-relaxation        349               0.00000                       1_GWF-(2,1,999)
 Linear Solver           350        73    -178.454                         1_GWF-(1,1,1)
 Under-relaxation        350               0.00000                       1_GWF-(2,1,999)
 Linear Solver           351        73    -178.454                         1_GWF-(1,1,1)
 Under-relaxation        351               0.00000                       1_GWF-(2,1,999)
 Linear Solver           352        73    -178.454                         1_GWF-(1,1,1)
 Under-relaxation        352               0.00000                       1_GWF-(2,1,999)
 Linear Solver           353        73    -178.454                         1_GWF-(1,1,1)
 Under-relaxation        353               0.00000                       1_GWF-(2,1,999)
 Linear Solver           354        73    -178.454                         1_GWF-(1,1,1)
 Under-relaxation        354               0.00000                       1_GWF-(2,1,999)
 Linear Solver           355        73    -178.454                         1_GWF-(1,1,1)
 Under-relaxation        355               0.00000                       1_GWF-(2,1,999)
 Linear Solver           356        73    -178.454                         1_GWF-(1,1,1)
 Under-relaxation        356               0.00000                       1_GWF-(2,1,999)
 Linear Solver           357        73    -178.454                         1_GWF-(1,1,1)
 Under-relaxation        357               0.00000                       1_GWF-(2,1,999)
 Linear Solver           358        73    -178.454                         1_GWF-(1,1,1)
 Under-relaxation        358               0.00000                       1_GWF-(2,1,999)
 Linear Solver           359        73    -178.454                         1_GWF-(1,1,1)
 Under-relaxation        359               0.00000                       1_GWF-(2,1,999)
 Linear Solver           360        73    -178.454                         1_GWF-(1,1,1)
 Under-relaxation        360               0.00000                       1_GWF-(2,1,999)
 Linear Solver           361        73    -178.454                         1_GWF-(1,1,1)
 Under-relaxation        361               0.00000                       1_GWF-(2,1,999)
 Linear Solver           362        73    -178.454                         1_GWF-(1,1,1)
 Under-relaxation        362               0.00000                       1_GWF-(2,1,999)
 Linear Solver           363        73    -178.454                         1_GWF-(1,1,1)
 Under-relaxation        363               0.00000                       1_GWF-(2,1,999)
 Linear Solver           364        73    -178.454                         1_GWF-(1,1,1)
 Under-relaxation        364               0.00000                       1_GWF-(2,1,999)
 Linear Solver           365        73    -178.454                         1_GWF-(1,1,1)
 Under-relaxation        365               0.00000                       1_GWF-(2,1,999)
 Linear Solver           366        73    -178.454                         1_GWF-(1,1,1)
 Under-relaxation        366               0.00000                       1_GWF-(2,1,999)
 Linear Solver           367        73    -178.454                         1_GWF-(1,1,1)
 Under-relaxation        367               0.00000                       1_GWF-(2,1,999)
 Linear Solver           368        73    -178.454                         1_GWF-(1,1,1)
 Under-relaxation        368               0.00000                       1_GWF-(2,1,999)
 Linear Solver           369        73    -178.454                         1_GWF-(1,1,1)
 Under-relaxation        369               0.00000                       1_GWF-(2,1,999)
 Linear Solver           370        73    -178.454                         1_GWF-(1,1,1)
 Under-relaxation        370               0.00000                       1_GWF-(2,1,999)
 Linear Solver           371        73    -178.454                         1_GWF-(1,1,1)
 Under-relaxation        371               0.00000                       1_GWF-(2,1,999)
 Linear Solver           372        73    -178.454                         1_GWF-(1,1,1)
 Under-relaxation        372               0.00000                       1_GWF-(2,1,999)
 Linear Solver           373        73    -178.454                         1_GWF-(1,1,1)
 Under-relaxation        373               0.00000                       1_GWF-(2,1,999)
 Linear Solver           374        73    -178.454                         1_GWF-(1,1,1)
 Under-relaxation        374               0.00000                       1_GWF-(2,1,999)
 Linear Solver           375        73    -178.454                         1_GWF-(1,1,1)
 Under-relaxation        375               0.00000                       1_GWF-(2,1,999)
 Linear Solver           376        73    -178.454                         1_GWF-(1,1,1)
 Under-relaxation        376               0.00000                       1_GWF-(2,1,999)
 Linear Solver           377        73    -178.454                         1_GWF-(1,1,1)
 Under-relaxation        377               0.00000                       1_GWF-(2,1,999)
 Linear Solver           378        73    -178.454                         1_GWF-(1,1,1)
 Under-relaxation        378               0.00000                       1_GWF-(2,1,999)
 Linear Solver           379        73    -178.454                         1_GWF-(1,1,1)
 Under-relaxation        379               0.00000                       1_GWF-(2,1,999)
 Linear Solver           380        73    -178.454                         1_GWF-(1,1,1)
 Under-relaxation        380               0.00000                       1_GWF-(2,1,999)
 Linear Solver           381        73    -178.454                         1_GWF-(1,1,1)
 Under-relaxation        381               0.00000                       1_GWF-(2,1,999)
 Linear Solver           382        73    -178.454                         1_GWF-(1,1,1)
 Under-relaxation        382               0.00000                       1_GWF-(2,1,999)
 Linear Solver           383        73    -178.454                         1_GWF-(1,1,1)
 Under-relaxation        383               0.00000                       1_GWF-(2,1,999)
 Linear Solver           384        73    -178.454                         1_GWF-(1,1,1)
 Under-relaxation        384               0.00000                       1_GWF-(2,1,999)
 Linear Solver           385        73    -178.454                         1_GWF-(1,1,1)
 Under-relaxation        385               0.00000                       1_GWF-(2,1,999)
 Linear Solver           386        73    -178.454                         1_GWF-(1,1,1)
 Under-relaxation        386               0.00000                       1_GWF-(2,1,999)
 Linear Solver           387        73    -178.454                         1_GWF-(1,1,1)
 Under-relaxation        387               0.00000                       1_GWF-(2,1,999)
 Linear Solver           388        73    -178.454                         1_GWF-(1,1,1)
 Under-relaxation        388               0.00000                       1_GWF-(2,1,999)
 Linear Solver           389        73    -178.454                         1_GWF-(1,1,1)
 Under-relaxation        389               0.00000                       1_GWF-(2,1,999)
 Linear Solver           390        73    -178.454                         1_GWF-(1,1,1)
 Under-relaxation        390               0.00000                       1_GWF-(2,1,999)
 Linear Solver           391        73    -178.454                         1_GWF-(1,1,1)
 Under-relaxation        391               0.00000                       1_GWF-(2,1,999)
 Linear Solver           392        73    -178.454                         1_GWF-(1,1,1)
 Under-relaxation        392               0.00000                       1_GWF-(2,1,999)
 Linear Solver           393        73    -178.454                         1_GWF-(1,1,1)
 Under-relaxation        393               0.00000                       1_GWF-(2,1,999)
 Linear Solver           394        73    -178.454                         1_GWF-(1,1,1)
 Under-relaxation        394               0.00000                       1_GWF-(2,1,999)
 Linear Solver           395        73    -178.454                         1_GWF-(1,1,1)
 Under-relaxation        395               0.00000                       1_GWF-(2,1,999)
 Linear Solver           396        73    -178.454                         1_GWF-(1,1,1)
 Under-relaxation        396               0.00000                       1_GWF-(2,1,999)
 Linear Solver           397        73    -178.454                         1_GWF-(1,1,1)
 Under-relaxation        397               0.00000                       1_GWF-(2,1,999)
 Linear Solver           398        73    -178.454                         1_GWF-(1,1,1)
 Under-relaxation        398               0.00000                       1_GWF-(2,1,999)
 Linear Solver           399        73    -178.454                         1_GWF-(1,1,1)
 Under-relaxation        399               0.00000                       1_GWF-(2,1,999)
 Linear Solver           400        73    -178.454                         1_GWF-(1,1,1)
 Under-relaxation        400               0.00000                       1_GWF-(2,1,999)
 Linear Solver           401        73    -178.454                         1_GWF-(1,1,1)
 Under-relaxation        401               0.00000                       1_GWF-(2,1,999)
 Linear Solver           402        73    -178.454                         1_GWF-(1,1,1)
 Under-relaxation        402               0.00000                       1_GWF-(2,1,999)
 Linear Solver           403        73    -178.454                         1_GWF-(1,1,1)
 Under-relaxation        403               0.00000                       1_GWF-(2,1,999)
 Linear Solver           404        73    -178.454                         1_GWF-(1,1,1)
 Under-relaxation        404               0.00000                       1_GWF-(2,1,999)
 Linear Solver           405        73    -178.454                         1_GWF-(1,1,1)
 Under-relaxation        405               0.00000                       1_GWF-(2,1,999)
 Linear Solver           406        73    -178.454                         1_GWF-(1,1,1)
 Under-relaxation        406               0.00000                       1_GWF-(2,1,999)
 Linear Solver           407        73    -178.454                         1_GWF-(1,1,1)
 Under-relaxation        407               0.00000                       1_GWF-(2,1,999)
 Linear Solver           408        73    -178.454                         1_GWF-(1,1,1)
 Under-relaxation        408               0.00000                       1_GWF-(2,1,999)
 Linear Solver           409        73    -178.454                         1_GWF-(1,1,1)
 Under-relaxation        409               0.00000                       1_GWF-(2,1,999)
 Linear Solver           410        73    -178.454                         1_GWF-(1,1,1)
 Under-relaxation        410               0.00000                       1_GWF-(2,1,999)
 Linear Solver           411        73    -178.454                         1_GWF-(1,1,1)
 Under-relaxation        411               0.00000                       1_GWF-(2,1,999)
 Linear Solver           412        73    -178.454                         1_GWF-(1,1,1)
 Under-relaxation        412               0.00000                       1_GWF-(2,1,999)
 Linear Solver           413        73    -178.454                         1_GWF-(1,1,1)
 Under-relaxation        413               0.00000                       1_GWF-(2,1,999)
 Linear Solver           414        73    -178.454                         1_GWF-(1,1,1)
 Under-relaxation        414               0.00000                       1_GWF-(2,1,999)
 Linear Solver           415        73    -178.454                         1_GWF-(1,1,1)
 Under-relaxation        415               0.00000                       1_GWF-(2,1,999)
 Linear Solver           416        73    -178.454                         1_GWF-(1,1,1)
[...]
 Under-relaxation        892               0.00000                       1_GWF-(2,1,999)
 Linear Solver           893        73    -178.454                         1_GWF-(1,1,1)
 Under-relaxation        893               0.00000                       1_GWF-(2,1,999)
 Linear Solver           894        73    -178.454                         1_GWF-(1,1,1)
 Under-relaxation        894               0.00000                       1_GWF-(2,1,999)
 Linear Solver           895        73    -178.454                         1_GWF-(1,1,1)
 Under-relaxation        895               0.00000                       1_GWF-(2,1,999)
 Linear Solver           896        73    -178.454                         1_GWF-(1,1,1)
 Under-relaxation        896               0.00000                       1_GWF-(2,1,999)
 Linear Solver           897        73    -178.454                         1_GWF-(1,1,1)
 Under-relaxation        897               0.00000                       1_GWF-(2,1,999)
 Linear Solver           898        73    -178.454                         1_GWF-(1,1,1)
 Under-relaxation        898               0.00000                       1_GWF-(2,1,999)
 Linear Solver           899        73    -178.454                         1_GWF-(1,1,1)
 Under-relaxation        899               0.00000                       1_GWF-(2,1,999)
 Linear Solver           900        73    -178.454                         1_GWF-(1,1,1)
 Under-relaxation        900               0.00000                       1_GWF-(2,1,999)
 Linear Solver           901        73    -178.454                         1_GWF-(1,1,1)
 Under-relaxation        901               0.00000                       1_GWF-(2,1,999)
 Linear Solver           902        73    -178.454                         1_GWF-(1,1,1)
 Under-relaxation        902               0.00000                       1_GWF-(2,1,999)
 Linear Solver           903        73    -178.454                         1_GWF-(1,1,1)
 Under-relaxation        903               0.00000                       1_GWF-(2,1,999)
 Linear Solver           904        73    -178.454                         1_GWF-(1,1,1)
 Under-relaxation        904               0.00000                       1_GWF-(2,1,999)
 Linear Solver           905        73    -178.454                         1_GWF-(1,1,1)
 Under-relaxation        905               0.00000                       1_GWF-(2,1,999)
 Linear Solver           906        73    -178.454                         1_GWF-(1,1,1)
 Under-relaxation        906               0.00000                       1_GWF-(2,1,999)
 Linear Solver           907        73    -178.454                         1_GWF-(1,1,1)
 Under-relaxation        907               0.00000                       1_GWF-(2,1,999)
 Linear Solver           908        73    -178.454                         1_GWF-(1,1,1)
 Under-relaxation        908               0.00000                       1_GWF-(2,1,999)
 Linear Solver           909        73    -178.454                         1_GWF-(1,1,1)
 Under-relaxation        909               0.00000                       1_GWF-(2,1,999)
 Linear Solver           910        73    -178.454                         1_GWF-(1,1,1)
 Under-relaxation        910               0.00000                       1_GWF-(2,1,999)
 Linear Solver           911        73    -178.454                         1_GWF-(1,1,1)
 Under-relaxation        911               0.00000                       1_GWF-(2,1,999)
 Linear Solver           912        73    -178.454                         1_GWF-(1,1,1)
 Under-relaxation        912               0.00000                       1_GWF-(2,1,999)
 Linear Solver           913        73    -178.454                         1_GWF-(1,1,1)
 Under-relaxation        913               0.00000                       1_GWF-(2,1,999)
 Linear Solver           914        73    -178.454                         1_GWF-(1,1,1)
 Under-relaxation        914               0.00000                       1_GWF-(2,1,999)
 Linear Solver           915        73    -178.454                         1_GWF-(1,1,1)
 Under-relaxation        915               0.00000                       1_GWF-(2,1,999)
 Linear Solver           916        73    -178.454                         1_GWF-(1,1,1)
 Under-relaxation        916               0.00000                       1_GWF-(2,1,999)
 Linear Solver           917        73    -178.454                         1_GWF-(1,1,1)
 Under-relaxation        917               0.00000                       1_GWF-(2,1,999)
 Linear Solver           918        73    -178.454                         1_GWF-(1,1,1)
 Under-relaxation        918               0.00000                       1_GWF-(2,1,999)
 Linear Solver           919        73    -178.454                         1_GWF-(1,1,1)
 Under-relaxation        919               0.00000                       1_GWF-(2,1,999)
 Linear Solver           920        73    -178.454                         1_GWF-(1,1,1)
 Under-relaxation        920               0.00000                       1_GWF-(2,1,999)
 Linear Solver           921        73    -178.454                         1_GWF-(1,1,1)
 Under-relaxation        921               0.00000                       1_GWF-(2,1,999)
 Linear Solver           922        73    -178.454                         1_GWF-(1,1,1)
 Under-relaxation        922               0.00000                       1_GWF-(2,1,999)
 Linear Solver           923        73    -178.454                         1_GWF-(1,1,1)
 Under-relaxation        923               0.00000                       1_GWF-(2,1,999)
 Linear Solver           924        73    -178.454                         1_GWF-(1,1,1)
 Under-relaxation        924               0.00000                       1_GWF-(2,1,999)
 Linear Solver           925        73    -178.454                         1_GWF-(1,1,1)
 Under-relaxation        925               0.00000                       1_GWF-(2,1,999)
 Linear Solver           926        73    -178.454                         1_GWF-(1,1,1)
 Under-relaxation        926               0.00000                       1_GWF-(2,1,999)
 Linear Solver           927        73    -178.454                         1_GWF-(1,1,1)
 Under-relaxation        927               0.00000                       1_GWF-(2,1,999)
 Linear Solver           928        73    -178.454                         1_GWF-(1,1,1)
 Under-relaxation        928               0.00000                       1_GWF-(2,1,999)
 Linear Solver           929        73    -178.454                         1_GWF-(1,1,1)
 Under-relaxation        929               0.00000                       1_GWF-(2,1,999)
 Linear Solver           930        73    -178.454                         1_GWF-(1,1,1)
 Under-relaxation        930               0.00000                       1_GWF-(2,1,999)
 Linear Solver           931        73    -178.454                         1_GWF-(1,1,1)
 Under-relaxation        931               0.00000                       1_GWF-(2,1,999)
 Linear Solver           932        73    -178.454                         1_GWF-(1,1,1)
 Under-relaxation        932               0.00000                       1_GWF-(2,1,999)
 Linear Solver           933        73    -178.454                         1_GWF-(1,1,1)
 Under-relaxation        933               0.00000                       1_GWF-(2,1,999)
 Linear Solver           934        73    -178.454                         1_GWF-(1,1,1)
 Under-relaxation        934               0.00000                       1_GWF-(2,1,999)
 Linear Solver           935        73    -178.454                         1_GWF-(1,1,1)
 Under-relaxation        935               0.00000                       1_GWF-(2,1,999)
 Linear Solver           936        73    -178.454                         1_GWF-(1,1,1)
 Under-relaxation        936               0.00000                       1_GWF-(2,1,999)
 Linear Solver           937        73    -178.454                         1_GWF-(1,1,1)
 Under-relaxation        937               0.00000                       1_GWF-(2,1,999)
 Linear Solver           938        73    -178.454                         1_GWF-(1,1,1)
 Under-relaxation        938               0.00000                       1_GWF-(2,1,999)
 Linear Solver           939        73    -178.454                         1_GWF-(1,1,1)
 Under-relaxation        939               0.00000                       1_GWF-(2,1,999)
 Linear Solver           940        73    -178.454                         1_GWF-(1,1,1)
 Under-relaxation        940               0.00000                       1_GWF-(2,1,999)
 Linear Solver           941        73    -178.454                         1_GWF-(1,1,1)
 Under-relaxation        941               0.00000                       1_GWF-(2,1,999)
 Linear Solver           942        73    -178.454                         1_GWF-(1,1,1)
 Under-relaxation        942               0.00000                       1_GWF-(2,1,999)
 Linear Solver           943        73    -178.454                         1_GWF-(1,1,1)
 Under-relaxation        943               0.00000                       1_GWF-(2,1,999)
 Linear Solver           944        73    -178.454                         1_GWF-(1,1,1)
 Under-relaxation        944               0.00000                       1_GWF-(2,1,999)
 Linear Solver           945        73    -178.454                         1_GWF-(1,1,1)
 Under-relaxation        945               0.00000                       1_GWF-(2,1,999)
 Linear Solver           946        73    -178.454                         1_GWF-(1,1,1)
 Under-relaxation        946               0.00000                       1_GWF-(2,1,999)
 Linear Solver           947        73    -178.454                         1_GWF-(1,1,1)
 Under-relaxation        947               0.00000                       1_GWF-(2,1,999)
 Linear Solver           948        73    -178.454                         1_GWF-(1,1,1)
 Under-relaxation        948               0.00000                       1_GWF-(2,1,999)
 Linear Solver           949        73    -178.454                         1_GWF-(1,1,1)
 Under-relaxation        949               0.00000                       1_GWF-(2,1,999)
 Linear Solver           950        73    -178.454                         1_GWF-(1,1,1)
 Under-relaxation        950               0.00000                       1_GWF-(2,1,999)
 Linear Solver           951        73    -178.454                         1_GWF-(1,1,1)
 Under-relaxation        951               0.00000                       1_GWF-(2,1,999)
 Linear Solver           952        73    -178.454                         1_GWF-(1,1,1)
 Under-relaxation        952               0.00000                       1_GWF-(2,1,999)
 Linear Solver           953        73    -178.454                         1_GWF-(1,1,1)
 Under-relaxation        953               0.00000                       1_GWF-(2,1,999)
 Linear Solver           954        73    -178.454                         1_GWF-(1,1,1)
 Under-relaxation        954               0.00000                       1_GWF-(2,1,999)
 Linear Solver           955        73    -178.454                         1_GWF-(1,1,1)
 Under-relaxation        955               0.00000                       1_GWF-(2,1,999)
 Linear Solver           956        73    -178.454                         1_GWF-(1,1,1)
 Under-relaxation        956               0.00000                       1_GWF-(2,1,999)
 Linear Solver           957        73    -178.454                         1_GWF-(1,1,1)
 Under-relaxation        957               0.00000                       1_GWF-(2,1,999)
 Linear Solver           958        73    -178.454                         1_GWF-(1,1,1)
 Under-relaxation        958               0.00000                       1_GWF-(2,1,999)
 Linear Solver           959        73    -178.454                         1_GWF-(1,1,1)
 Under-relaxation        959               0.00000                       1_GWF-(2,1,999)
 Linear Solver           960        73    -178.454                         1_GWF-(1,1,1)
 Under-relaxation        960               0.00000                       1_GWF-(2,1,999)
 Linear Solver           961        73    -178.454                         1_GWF-(1,1,1)
 Under-relaxation        961               0.00000                       1_GWF-(2,1,999)
 Linear Solver           962        73    -178.454                         1_GWF-(1,1,1)
 Under-relaxation        962               0.00000                       1_GWF-(2,1,999)
 Linear Solver           963        73    -178.454                         1_GWF-(1,1,1)
 Under-relaxation        963               0.00000                       1_GWF-(2,1,999)
 Linear Solver           964        73    -178.454                         1_GWF-(1,1,1)
 Under-relaxation        964               0.00000                       1_GWF-(2,1,999)
 Linear Solver           965        73    -178.454                         1_GWF-(1,1,1)
 Under-relaxation        965               0.00000                       1_GWF-(2,1,999)
 Linear Solver           966        73    -178.454                         1_GWF-(1,1,1)
 Under-relaxation        966               0.00000                       1_GWF-(2,1,999)
 Linear Solver           967        73    -178.454                         1_GWF-(1,1,1)
 Under-relaxation        967               0.00000                       1_GWF-(2,1,999)
 Linear Solver           968        73    -178.454                         1_GWF-(1,1,1)
 Under-relaxation        968               0.00000                       1_GWF-(2,1,999)
 Linear Solver           969        73    -178.454                         1_GWF-(1,1,1)
 Under-relaxation        969               0.00000                       1_GWF-(2,1,999)
 Linear Solver           970        73    -178.454                         1_GWF-(1,1,1)
 Under-relaxation        970               0.00000                       1_GWF-(2,1,999)
 Linear Solver           971        73    -178.454                         1_GWF-(1,1,1)
 Under-relaxation        971               0.00000                       1_GWF-(2,1,999)
 Linear Solver           972        73    -178.454                         1_GWF-(1,1,1)
 Under-relaxation        972               0.00000                       1_GWF-(2,1,999)
 Linear Solver           973        73    -178.454                         1_GWF-(1,1,1)
 Under-relaxation        973               0.00000                       1_GWF-(2,1,999)
 Linear Solver           974        73    -178.454                         1_GWF-(1,1,1)
 Under-relaxation        974               0.00000                       1_GWF-(2,1,999)
 Linear Solver           975        73    -178.454                         1_GWF-(1,1,1)
 Under-relaxation        975               0.00000                       1_GWF-(2,1,999)
 Linear Solver           976        73    -178.454                         1_GWF-(1,1,1)
 Under-relaxation        976               0.00000                       1_GWF-(2,1,999)
 Linear Solver           977        73    -178.454                         1_GWF-(1,1,1)
 Under-relaxation        977               0.00000                       1_GWF-(2,1,999)
 Linear Solver           978        73    -178.454                         1_GWF-(1,1,1)
 Under-relaxation        978               0.00000                       1_GWF-(2,1,999)
 Linear Solver           979        73    -178.454                         1_GWF-(1,1,1)
 Under-relaxation        979               0.00000                       1_GWF-(2,1,999)
 Linear Solver           980        73    -178.454                         1_GWF-(1,1,1)
 Under-relaxation        980               0.00000                       1_GWF-(2,1,999)
 Linear Solver           981        73    -178.454                         1_GWF-(1,1,1)
 Under-relaxation        981               0.00000                       1_GWF-(2,1,999)
 Linear Solver           982        73    -178.454                         1_GWF-(1,1,1)
 Under-relaxation        982               0.00000                       1_GWF-(2,1,999)
 Linear Solver           983        73    -178.454                         1_GWF-(1,1,1)
 Under-relaxation        983               0.00000                       1_GWF-(2,1,999)
 Linear Solver           984        73    -178.454                         1_GWF-(1,1,1)
 Under-relaxation        984               0.00000                       1_GWF-(2,1,999)
 Linear Solver           985        73    -178.454                         1_GWF-(1,1,1)
 Under-relaxation        985               0.00000                       1_GWF-(2,1,999)
 Linear Solver           986        73    -178.454                         1_GWF-(1,1,1)
 Under-relaxation        986               0.00000                       1_GWF-(2,1,999)
 Linear Solver           987        73    -178.454                         1_GWF-(1,1,1)
 Under-relaxation        987               0.00000                       1_GWF-(2,1,999)
 Linear Solver           988        73    -178.454                         1_GWF-(1,1,1)
 Under-relaxation        988               0.00000                       1_GWF-(2,1,999)
 Linear Solver           989        73    -178.454                         1_GWF-(1,1,1)
 Under-relaxation        989               0.00000                       1_GWF-(2,1,999)
 Linear Solver           990        73    -178.454                         1_GWF-(1,1,1)
 Under-relaxation        990               0.00000                       1_GWF-(2,1,999)
 Linear Solver           991        73    -178.454                         1_GWF-(1,1,1)
 Under-relaxation        991               0.00000                       1_GWF-(2,1,999)
 Linear Solver           992        73    -178.454                         1_GWF-(1,1,1)
 Under-relaxation        992               0.00000                       1_GWF-(2,1,999)
 Linear Solver           993        73    -178.454                         1_GWF-(1,1,1)
 Under-relaxation        993               0.00000                       1_GWF-(2,1,999)
 Linear Solver           994        73    -178.454                         1_GWF-(1,1,1)
 Under-relaxation        994               0.00000                       1_GWF-(2,1,999)
 Linear Solver           995        73    -178.454                         1_GWF-(1,1,1)
 Under-relaxation        995               0.00000                       1_GWF-(2,1,999)
 Linear Solver           996        73    -178.454                         1_GWF-(1,1,1)
 Under-relaxation        996               0.00000                       1_GWF-(2,1,999)
 Linear Solver           997        73    -178.454                         1_GWF-(1,1,1)
 Under-relaxation        997               0.00000                       1_GWF-(2,1,999)
 Linear Solver           998        73    -178.454                         1_GWF-(1,1,1)
 Under-relaxation        998               0.00000                       1_GWF-(2,1,999)
 Linear Solver           999        73    -178.454                         1_GWF-(1,1,1)
 Under-relaxation        999               0.00000                       1_GWF-(2,1,999)
 Linear Solver          1000        73    -178.454                         1_GWF-(1,1,1)
 Under-relaxation       1000               0.00000                       1_GWF-(2,1,999)
 Solution 1 did not converge for stress period 1 and time step 1
 Solution Group 1 did not converge for stress period 1 and time step 1
 Simulation convergence failure. Simulation will terminate after output and deallocation.

 INFORMATION ON VARIABLES STORED IN THE MEMORY MANAGER
 
 Number of allocated integer variables:   118329
 Number of allocated real variables:    117005
 Allocated memory in megabytes:     1.40936    
 

 Run end date and time (yyyy/mm/dd hh:mm:ss): 2020/06/15 10:16:21
 Elapsed run time:  8.989 Seconds

 Simulation convergence failure occurred 1 time(s).
 Premature termination of simulation.
