                                   MODFLOW 6
                U.S. GEOLOGICAL SURVEY MODULAR HYDROLOGIC MODEL
                          GROUNDWATER FLOW MODEL (GWF)
                            VERSION 6.1.0 12/12/2019

   MODFLOW 6 compiled Dec 12 2019 13:30:12 with IFORT compiler (ver. 19.0.5)

This software has been approved for release by the U.S. Geological 
Survey (USGS). Although the software has been subjected to rigorous 
review, the USGS reserves the right to update the software as needed 
pursuant to further analysis and review. No warranty, expressed or 
implied, is made by the USGS or the U.S. Government as to the 
functionality of the software and related material nor shall the 
fact of release constitute any such warranty. Furthermore, the 
software is released on condition that neither the USGS nor the U.S. 
Government shall be held liable for any damages resulting from its 
authorized or unauthorized use. Also refer to the USGS Water 
Resources Software User Rights Notice for complete use, copyright, 
and distribution information.


MODFLOW was compiled using uniform precision.
Precision of REAL variables: 15


 OPENED benchmark_mf6.dis
 FILE TYPE:DIS6                   UNIT 1005   STATUS:OLD                 
 FORMAT:FORMATTED              ACCESS:SEQUENTIAL          
 ACTION:READ                


 OPENED benchmark_mf6.ic
 FILE TYPE:IC6                    UNIT 1006   STATUS:OLD                 
 FORMAT:FORMATTED              ACCESS:SEQUENTIAL          
 ACTION:READ                


 OPENED benchmark_mf6.npf
 FILE TYPE:NPF6                   UNIT 1007   STATUS:OLD                 
 FORMAT:FORMATTED              ACCESS:SEQUENTIAL          
 ACTION:READ                


 OPENED benchmark_mf6.rch
 FILE TYPE:RCH6                   UNIT 1008   STATUS:OLD                 
 FORMAT:FORMATTED              ACCESS:SEQUENTIAL          
 ACTION:READ                


 OPENED benchmark_mf6.chd
 FILE TYPE:CHD6                   UNIT 1009   STATUS:OLD                 
 FORMAT:FORMATTED              ACCESS:SEQUENTIAL          
 ACTION:READ                


 OPENED benchmark_mf6.oc
 FILE TYPE:OC6                    UNIT 1010   STATUS:OLD                 
 FORMAT:FORMATTED              ACCESS:SEQUENTIAL          
 ACTION:READ                

 NAMEFILE OPTIONS:
    NEWTON-RAPHSON method enabled for the model.
    NEWTON-RAPHSON UNDER-RELAXATION based on the bottom elevation of the model will be applied to the model.

 DIS -- STRUCTURED GRID DISCRETIZATION PACKAGE, VERSION 2 : 3/27/2014 - INPUT READ FROM UNIT 1005


 PROCESSING DISCRETIZATION OPTIONS
 END OF DISCRETIZATION OPTIONS
 MODEL LENGTH UNIT IS UNDEFINED
 PROCESSING DISCRETIZATION DIMENSIONS
    NLAY =       2
    NROW =       1
    NCOL =    1000
 END OF DISCRETIZATION DIMENSIONS
 PROCESSING GRIDDATA

                     DELR =   10.00000    

                     DELC =   1.000000    
 END PROCESSING GRIDDATA

 NPF -- NODE PROPERTY FLOW PACKAGE, VERSION 1, 3/30/2015 INPUT READ FROM UNIT 1007


 PROCESSING NPF OPTIONS
    CELL-BY-CELL FLOW INFORMATION WILL BE SAVED TO BINARY FILE WHENEVER ICBCFL IS NOT ZERO.
 END OF NPF OPTIONS

 RCH   -- RCH PACKAGE, VERSION 8, 2/22/2014 INPUT READ FROM UNIT 1008

 PROCESSING RCH OPTIONS
    RECHARGE WILL BE APPLIED TO SPECIFIED CELL.
 END OF RCH OPTIONS

 PROCESSING RCH DIMENSIONS
    MAXBOUND =    2000
 END OF RCH DIMENSIONS

 CHD   -- CHD PACKAGE, VERSION 8, 2/22/2014 INPUT READ FROM UNIT 1009

 PROCESSING CHD OPTIONS
    FLOWS WILL BE SAVED TO BUDGET FILE SPECIFIED IN OUTPUT CONTROL
 END OF CHD OPTIONS

 PROCESSING CHD DIMENSIONS
    MAXBOUND =       2
 END OF CHD DIMENSIONS

 IC -- INITIAL CONDITIONS PACKAGE, VERSION 8, 3/28/2015 INPUT READ FROM UNIT 1006
 PROCESSING GRIDDATA
 END PROCESSING GRIDDATA
 PROCESSING GRIDDATA

                ICELLTYPE = 1

                        K =  0.1000000E-02 FOR LAYER 1

                        K =  0.1000000E-04 FOR LAYER 2

                      K33 =  0.1000000E-03 FOR LAYER 1

                      K33 =  0.1000000E-05 FOR LAYER 2

                   WETDRY =  -1.000000    
 K22 not provided.  Assuming K22 = K.
 END PROCESSING GRIDDATA
    BINARY GRID INFORMATION WILL BE WRITTEN TO:
      UNIT NUMBER: 1012
      FILE NAME: F:\veeth\OneDrive - stud.uni-stuttgart.de\[kup]\ModFlow\projs\mf5-mf6_benchmarks\scripts\mf6 benchmark\data\benchmark_mf6.dis.grb

 OPENED F:\veeth\OneDrive - stud.uni-stuttgart.de\[kup]\ModFlow\projs\mf5-mf6_benchmarks\scripts\mf6 benchmark\data\benchmark_mf6.dis.grb
 FILE TYPE:DATA(BINARY)   UNIT 1012   STATUS:REPLACE             
 FORMAT:UNFORMATTED            ACCESS:STREAM              
 ACTION:READWRITE           

      THE LAST TIME STEP WILL BE PRINTED
      THE LAST TIME STEP WILL BE PRINTED
 PROCESSING OC OPTIONS
    BUDGET INFORMATION WILL BE WRITTEN TO:
      UNIT NUMBER: 1013
      FILE NAME: benchmark_mf6.cbb

 OPENED benchmark_mf6.cbb
 FILE TYPE:DATA(BINARY)   UNIT 1013   STATUS:REPLACE             
 FORMAT:UNFORMATTED            ACCESS:STREAM              
 ACTION:READWRITE           

    HEAD INFORMATION WILL BE WRITTEN TO:
      UNIT NUMBER: 1014
      FILE NAME: benchmark_mf6.hds

 OPENED benchmark_mf6.hds
 FILE TYPE:DATA(BINARY)   UNIT 1014   STATUS:REPLACE             
 FORMAT:UNFORMATTED            ACCESS:STREAM              
 ACTION:READWRITE           

 END OF OC OPTIONS

 BEGIN READING OUTPUT CONTROL FOR STRESS PERIOD 1
      ALL TIME STEPS WILL BE SAVED
      ALL TIME STEPS WILL BE SAVED
      THE LAST TIME STEP WILL BE PRINTED

 END READING OUTPUT CONTROL FOR STRESS PERIOD 1

 INNER ITERATION SUMMARY
 --------------------------------------------------------------------------------------------------------------------------------
     TOTAL      OUTER     INNER                    MAXIMUM CHANGE        MAXIMUM                  MAXIMUM RESIDUAL        MAXIMUM
 ITERATION  ITERATION ITERATION                    MODEL-(CELLID)         CHANGE                    MODEL-(CELLID)       RESIDUAL
 --------------------------------------------------------------------------------------------------------------------------------
          1         1         1                   1_GWF-(2,1,999)  -8.389790                       1_GWF-(1,1,994)  0.5581318E-05
          2         1         2                   1_GWF-(2,1,999)  0.2411584                       1_GWF-(1,1,995) -0.4770655E-06
          3         1         3                   1_GWF-(2,1,999)  0.6120727E-03                   1_GWF-(2,1,999) -0.1211383E-06
          4         1         4                   1_GWF-(2,1,999)  0.1057240E-01                   1_GWF-(2,1,999) -0.1709332E-07
          5         1         5                   1_GWF-(2,1,999)  0.1600256E-02                   1_GWF-(2,1,999)  0.1799023E-08
          6         1         6                   1_GWF-(2,1,999) -0.3205921E-04                   1_GWF-(2,1,999)  0.1404176E-08
          7         2         1                   1_GWF-(2,1,999)  -1.333403                         1_GWF-(1,1,4)  0.3069134E-05
          8         2         2                   1_GWF-(2,1,999) -0.1533489                        1_GWF-(1,1,19)  0.1332556E-05
          9         2         3                   1_GWF-(2,1,999) -0.7227427E-01                    1_GWF-(1,1,61)  0.8893447E-06
         10         2         4                   1_GWF-(2,1,999) -0.6723453E-01                    1_GWF-(1,1,88)  0.6596921E-06
         11         2         5                   1_GWF-(2,1,999)  0.6698491E-02                    1_GWF-(1,1,55)  0.4095360E-06
         12         2         6                   1_GWF-(2,1,999) -0.3594270E-02                   1_GWF-(1,1,164)  0.3525471E-06
         13         2         7                   1_GWF-(2,1,999)  0.8024129E-03                     1_GWF-(1,1,4)  0.3076841E-06
         14         2         8                   1_GWF-(2,1,999) -0.3694687E-02                   1_GWF-(1,1,176)  0.2435175E-06
         15         2         9                   1_GWF-(2,1,999) -0.7245714E-02                   1_GWF-(1,1,932) -0.3580268E-06
         16         2        10                   1_GWF-(2,1,999)  0.1018450E-01                   1_GWF-(1,1,251)  0.1820504E-06
         17         2        11                   1_GWF-(2,1,999)  0.3533460E-01                   1_GWF-(1,1,133) -0.1018239E-05
         18         2        12                   1_GWF-(2,1,999) -0.6382422E-01                   1_GWF-(1,1,134)  0.2663969E-05
         19         2        13                   1_GWF-(2,1,999)  0.3030882E-01                   1_GWF-(1,1,353)  0.1125540E-06
         20         2        14                   1_GWF-(2,1,999)  0.1012653E-02                   1_GWF-(1,1,378)  0.9929632E-07
         21         2        15                   1_GWF-(2,1,999)  0.3046725E-03                   1_GWF-(1,1,379)  0.9175530E-07
         22         2        16                   1_GWF-(2,1,999)  0.1038376E-02                   1_GWF-(1,1,391)  0.8278493E-07
         23         2        17                   1_GWF-(2,1,999)  0.1187216E-03                   1_GWF-(1,1,437)  0.6223156E-07
         24         2        18                   1_GWF-(2,1,999)  0.4509815E-02                   1_GWF-(1,1,425)  0.6102280E-07
         25         2        19                   1_GWF-(2,1,999) -0.2894012E-02                   1_GWF-(1,1,494)  0.4309615E-07
         26         2        20                   1_GWF-(2,1,999) -0.1156329E-02                   1_GWF-(1,1,674)  0.3251563E-07
         27         2        21                   1_GWF-(2,1,999)  0.1139360E-02                     1_GWF-(1,1,4)  0.3230152E-07
         28         2        22                   1_GWF-(2,1,999) -0.1086558E-02                   1_GWF-(1,1,611)  0.2704487E-07
         29         2        23                   1_GWF-(2,1,999)  0.5181092E-03                   1_GWF-(1,1,612)  0.3120422E-07
         30         2        24                   1_GWF-(2,1,999) -0.1544790E-02                   1_GWF-(1,1,634)  0.2369741E-07
         31         2        25                   1_GWF-(2,1,999) -0.5698737E-03                   1_GWF-(1,1,677)  0.2181092E-07
         32         2        26                   1_GWF-(2,1,999) -0.5385180E-03                   1_GWF-(1,1,648)  0.1976913E-07
         33         2        27                   1_GWF-(2,1,999) -0.2494570E-02                   1_GWF-(1,1,721)  0.1237613E-07
         34         2        28                   1_GWF-(2,1,999)  0.1421524E-03                   1_GWF-(1,1,685)  0.1264207E-07
         35         2        29                   1_GWF-(2,1,999) -0.1289315E-02                   1_GWF-(1,1,725)  0.8743138E-08
         36         2        30                   1_GWF-(2,1,999)  0.4073246E-04                   1_GWF-(1,1,713)  0.8800768E-08
         37         2        31                   1_GWF-(2,1,999) -0.4232361E-03                   1_GWF-(1,1,717)  0.7776868E-08
         38         2        32                   1_GWF-(2,1,999) -0.2289739E-02                   1_GWF-(1,1,789)  0.1399024E-08
         39         2        33                   1_GWF-(2,1,999)  0.2002525E-02                   1_GWF-(1,1,721)  0.6932283E-08
         40         2        34                   1_GWF-(2,1,999) -0.3862773E-02                   1_GWF-(1,1,696) -0.3632444E-08
         41         2        35                   1_GWF-(2,1,999) -0.5140491E-05                   1_GWF-(1,1,696) -0.3647189E-08
         42         2        36                   1_GWF-(2,1,999)  0.2258013E-04                   1_GWF-(1,1,696) -0.3586133E-08
         43         2        37                   1_GWF-(2,1,999) -0.2699169E-04                   1_GWF-(1,1,697) -0.3659189E-08
         44         2        38                   1_GWF-(2,1,999)  0.5245600E-04                   1_GWF-(1,1,696) -0.3516828E-08
         45         2        39                   1_GWF-(2,1,999) -0.9713941E-04                   1_GWF-(1,1,698) -0.3779942E-08
         46         2        40                   1_GWF-(2,1,999)  0.1959725E-03                   1_GWF-(1,1,696) -0.3248592E-08
         47         2        41                   1_GWF-(2,1,999)  0.4744450E-03                   1_GWF-(1,1,686) -0.1964624E-08
         48         2        42                   1_GWF-(2,1,999)  0.2202672E-02                   1_GWF-(1,1,725)  0.4046068E-08
         49         2        43                   1_GWF-(2,1,999)  0.5460861E-03                   1_GWF-(1,1,720)  0.5529424E-08
         50         2        44                   1_GWF-(2,1,999)  0.9627310E-04                   1_GWF-(1,1,718)  0.5790780E-08
         51         2        45                   1_GWF-(2,1,999) -0.2569446E-03                   1_GWF-(1,1,719)  0.5092553E-08
         52         2        46                   1_GWF-(2,1,999) -0.4959750E-03                   1_GWF-(1,1,720)  0.3744803E-08
         53         2        47                   1_GWF-(2,1,999)  0.1717673E-02                   1_GWF-(1,1,715)  0.8409913E-08
         54         2        48                   1_GWF-(2,1,999) -0.2232941E-02                   1_GWF-(1,1,723)  0.2346947E-08
         55         2        49                   1_GWF-(2,1,999) -0.4513839E-03                   1_GWF-(1,1,735)  0.1124995E-08
         56         2        50                   1_GWF-(2,1,999) -0.7812329E-04                   1_GWF-(1,1,739)  0.9144790E-09
         57         2        51                   1_GWF-(2,1,999) -0.1214387E-04                   1_GWF-(1,1,740)  0.8817999E-09
         58         2        52                   1_GWF-(2,1,999) -0.3556740E-05                   1_GWF-(1,1,741)  0.8722138E-09
         59         2        53                   1_GWF-(2,1,999) -0.1627003E-05                   1_GWF-(1,1,741)  0.8678167E-09
         60         2        54                   1_GWF-(2,1,999) -0.9916838E-06                   1_GWF-(1,1,741)  0.8651244E-09
         61         2        55                   1_GWF-(2,1,999)  0.5507338E-06                   1_GWF-(1,1,741)  0.8666085E-09
         62         3         1                   1_GWF-(2,1,999) -0.4368489E-01                   1_GWF-(1,1,309)  0.4469265E-06
         63         3         2                   1_GWF-(2,1,999) -0.6085557E-02                   1_GWF-(1,1,342)  0.3915807E-06
         64         3         3                   1_GWF-(2,1,999)  0.5216781E-02                   1_GWF-(2,1,513)  0.4019590E-06
         65         3         4                   1_GWF-(2,1,999)  0.1903497E-01                   1_GWF-(2,1,513)  0.5812421E-06
         66         3         5                   1_GWF-(2,1,999)  0.6856022E-02                   1_GWF-(2,1,513)  0.7138183E-06
         67         3         6                   1_GWF-(2,1,999)  0.1875627E-02                   1_GWF-(2,1,513)  0.6977320E-06
         68         3         7                   1_GWF-(2,1,999) -0.8137588E-02                   1_GWF-(2,1,513)  0.5943474E-06
         69         3         8                   1_GWF-(2,1,999) -0.4641410E-02                   1_GWF-(2,1,513)  0.4913125E-06
         70         3         9                   1_GWF-(2,1,999) -0.8592978E-03                   1_GWF-(2,1,513)  0.4753450E-06
         71         3        10                   1_GWF-(2,1,999)  0.1237792E-02                   1_GWF-(2,1,513)  0.4576813E-06
         72         3        11                   1_GWF-(2,1,999) -0.4988224E-02                   1_GWF-(1,1,519)  0.4255372E-06
         73         3        12                   1_GWF-(2,1,999)  0.5312873E-02                   1_GWF-(2,1,513)  0.3260279E-06
         74         3        13                   1_GWF-(2,1,999) -0.1587088E-01                   1_GWF-(1,1,695)  0.1321491E-06
         75         3        14                   1_GWF-(2,1,999) -0.9103286E-02                   1_GWF-(1,1,741)  0.1373892E-06
         76         3        15                   1_GWF-(2,1,999) -0.1181015E-01                   1_GWF-(1,1,738)  0.9404740E-07
         77         3        16                   1_GWF-(2,1,999)  0.5308532E-02                   1_GWF-(1,1,756)  0.1063889E-06
         78         3        17                   1_GWF-(2,1,999) -0.1565182E-01                   1_GWF-(2,1,697)  0.7207419E-07
         79         3        18                   1_GWF-(2,1,999) -0.4955376E-03                   1_GWF-(1,1,783)  0.4037780E-07
         80         3        19                   1_GWF-(2,1,999) -0.4845561E-02                   1_GWF-(2,1,744)  0.2965858E-07
         81         3        20                   1_GWF-(2,1,999) -0.8181473E-02                   1_GWF-(2,1,730)  0.9354145E-08
         82         3        21                   1_GWF-(2,1,999) -0.2834105E-02                   1_GWF-(1,1,701)  0.3235143E-08
         83         3        22                   1_GWF-(2,1,999) -0.9312515E-04                   1_GWF-(1,1,703)  0.2804308E-08
         84         3        23                   1_GWF-(2,1,999) -0.1992569E-03                   1_GWF-(1,1,718)  0.1713738E-08
         85         3        24                   1_GWF-(2,1,999)  0.2480751E-02                   1_GWF-(1,1,734)  0.1120853E-07
         86         3        25                   1_GWF-(2,1,999)  0.1094884E-03                   1_GWF-(1,1,732)  0.9155554E-08
         87         3        26                   1_GWF-(2,1,999) -0.2738496E-02                   1_GWF-(1,1,717)  0.7113409E-09
         88         3        27                   1_GWF-(2,1,999) -0.1592065E-04                   1_GWF-(1,1,716)  0.6598778E-09
         89         3        28                   1_GWF-(2,1,999) -0.2737432E-05                   1_GWF-(1,1,716)  0.6458517E-09
         90         3        29                   1_GWF-(2,1,999)  0.2174895E-04                   1_GWF-(1,1,716)  0.7521397E-09
         91         3        30                   1_GWF-(2,1,999) -0.5264774E-04                   1_GWF-(1,1,714)  0.4933933E-09
         92         3        31                   1_GWF-(2,1,999) -0.1052995E-04                   1_GWF-(1,1,714)  0.4416055E-09
         93         3        32                   1_GWF-(2,1,999) -0.5129305E-05                   1_GWF-(1,1,714)  0.4164120E-09
         94         3        33                   1_GWF-(2,1,999) -0.4736981E-05                   1_GWF-(1,1,713)  0.3932521E-09
         95         3        34                   1_GWF-(2,1,999) -0.4237823E-05                   1_GWF-(1,1,713)  0.3726480E-09
         96         3        35                   1_GWF-(2,1,999) -0.2412377E-05                   1_GWF-(1,1,713)  0.3610334E-09
         97         3        36                   1_GWF-(2,1,999) -0.7934510E-06                   1_GWF-(1,1,713)  0.3573165E-09
         98         3        37                   1_GWF-(2,1,999) -0.1718991E-06                   1_GWF-(1,1,713)  0.3566045E-09
         99         4         1                   1_GWF-(2,1,999) -0.5438532E-02                   1_GWF-(1,1,277) -0.1189769E-05
        100         4         2                   1_GWF-(2,1,999) -0.1335670E-01                   1_GWF-(2,1,777)  0.3571030E-06
        101         4         3                   1_GWF-(2,1,999) -0.8352588E-01                   1_GWF-(1,1,904)  0.5135494E-06
        102         4         4                   1_GWF-(2,1,999) -0.5819075E-01                   1_GWF-(2,1,738) -0.3768289E-06
        103         4         5                   1_GWF-(2,1,999) -0.4212923E-01                   1_GWF-(2,1,760) -0.3091118E-06
        104         4         6                   1_GWF-(2,1,999)  0.5817836E-02                   1_GWF-(1,1,766) -0.2569320E-06
        105         4         7                   1_GWF-(2,1,999) -0.1386615E-02                   1_GWF-(2,1,769) -0.3733855E-06
        106         4         8                   1_GWF-(2,1,999) -0.3567139E-01                   1_GWF-(1,1,763)  0.4964127E-06
        107         4         9                   1_GWF-(2,1,999)  0.1634657E-01                   1_GWF-(1,1,789)  0.1988363E-07
        108         4        10                   1_GWF-(2,1,999)  0.8046992E-04                   1_GWF-(2,1,773) -0.1107557E-07
        109         4        11                   1_GWF-(2,1,999) -0.5269971E-03                   1_GWF-(1,1,947)  0.8998845E-08
        110         4        12                   1_GWF-(2,1,999) -0.2167170E-02                   1_GWF-(1,1,762)  0.6680850E-08
        111         4        13                   1_GWF-(2,1,999)  0.9644440E-03                   1_GWF-(2,1,954)  0.1196278E-08
        112         4        14                   1_GWF-(2,1,999) -0.4993906E-04                   1_GWF-(1,1,963)  0.9214198E-09
        113         4        15                   1_GWF-(2,1,999) -0.3292228E-05                   1_GWF-(1,1,963)  0.9108068E-09
        114         5         1                   1_GWF-(2,1,999)  0.7874354E-02                   1_GWF-(1,1,280)  0.2323230E-05
        115         5         2                   1_GWF-(2,1,999)  0.3318101E-03                   1_GWF-(1,1,277)  0.5262949E-07
        116         5         3                   1_GWF-(2,1,999)  0.2046165E-04                   1_GWF-(1,1,277)  0.3477612E-08
        117         5         4                   1_GWF-(2,1,999) -0.3125238E-06                   1_GWF-(1,1,311)  0.1153698E-09
        118         5         5                   1_GWF-(2,1,997) -0.2370957E-09                   1_GWF-(1,1,311)  0.1148651E-09
        119         6         1                   1_GWF-(2,1,999) -0.2480742E-02                   1_GWF-(1,1,438) -0.1884003E-05
        120         6         2                   1_GWF-(2,1,999) -0.4598643E-01                   1_GWF-(1,1,269)  0.1850950E-05
        121         6         3                   1_GWF-(2,1,999)  0.2298249E-01                   1_GWF-(1,1,998)  0.2033568E-06
        122         6         4                   1_GWF-(2,1,999)  0.1448793E-01                   1_GWF-(1,1,366)  0.7985287E-07
        123         6         5                   1_GWF-(2,1,999) -0.3655091                       1_GWF-(1,1,998)  0.3413673E-05
        124         6         6                   1_GWF-(2,1,999)  0.3674761                       1_GWF-(1,1,352)  0.5215071E-07
        125         6         7                   1_GWF-(2,1,999) -0.7894242E-03                   1_GWF-(1,1,386)  0.2864604E-07
        126         6         8                   1_GWF-(2,1,999) -0.5670199E-03                   1_GWF-(1,1,269)  0.5678769E-08
        127         6         9                   1_GWF-(2,1,999)  0.9741386E-05                   1_GWF-(1,1,273)  0.4789878E-08
        128         6        10                   1_GWF-(2,1,999) -0.2029776E-03                   1_GWF-(1,1,270)  0.6050821E-09
        129         6        11                   1_GWF-(2,1,999) -0.8670029E-06                   1_GWF-(1,1,270)  0.5768141E-09
        130         6        12                   1_GWF-(2,1,999) -0.5056107E-05                   1_GWF-(1,1,269)  0.2244457E-09
        131         6        13                   1_GWF-(2,1,999) -0.1358288E-05                   1_GWF-(1,1,269)  0.1324358E-09
        132         6        14                   1_GWF-(2,1,999) -0.4566956E-06                   1_GWF-(1,1,269)  0.1011241E-09
        133         6        15                   1_GWF-(2,1,999) -0.5917754E-06                   1_GWF-(2,1,269)  0.7501550E-10
        134         6        16                   1_GWF-(2,1,999) -0.2443712E-07                   1_GWF-(2,1,269)  0.7457589E-10
        135         7         1                   1_GWF-(2,1,999) -0.6161657E-03                   1_GWF-(1,1,439)  0.3425462E-05
        136         7         2                   1_GWF-(2,1,999) -0.3426073E-04                   1_GWF-(1,1,433)  0.6194254E-07
        137         7         3                   1_GWF-(2,1,999) -0.2346835E-05                   1_GWF-(2,1,429)  0.2134740E-08
        138         7         4                   1_GWF-(2,1,999) -0.5822635E-08                   1_GWF-(1,1,432)  0.4692245E-09
        139         7         5                   1_GWF-(2,1,999) -0.7700802E-09                   1_GWF-(1,1,432)  0.4560453E-09
        140         8         1                   1_GWF-(2,1,999) -0.7460302E-03                   1_GWF-(1,1,452)  0.3882524E-05
        141         8         2                   1_GWF-(2,1,999) -0.3530065E-04                   1_GWF-(1,1,435)  0.2833331E-07
        142         8         3                   1_GWF-(2,1,999) -0.2376873E-05                   1_GWF-(2,1,432)  0.1903944E-08
        143         8         4                   1_GWF-(2,1,999)  0.5812759E-07                   1_GWF-(1,1,452)  0.1881741E-09
        144         8         5                   1_GWF-(2,1,997) -0.1984634E-09                   1_GWF-(1,1,452)  0.1874092E-09
        145         9         1                   1_GWF-(2,1,999) -0.9557750E-03                   1_GWF-(1,1,454)  0.2776563E-05
        146         9         2                   1_GWF-(2,1,999) -0.4965882E-04                   1_GWF-(1,1,440)  0.2531815E-07
        147         9         3                   1_GWF-(2,1,999) -0.4267168E-05                   1_GWF-(2,1,441)  0.1741191E-08
        148         9         4                   1_GWF-(2,1,999)  0.1726116E-06                   1_GWF-(1,1,444)  0.3291496E-09
        149         9         5                   1_GWF-(2,1,999) -0.1207403E-08                   1_GWF-(1,1,444)  0.3217629E-09
        150        10         1                   1_GWF-(2,1,999) -0.5605786E-03                   1_GWF-(1,1,456)  0.3089854E-05
        151        10         2                   1_GWF-(2,1,999) -0.1221567E-04                   1_GWF-(1,1,448)  0.4507674E-08
        152        10         3                   1_GWF-(2,1,999) -0.3521049E-06                   1_GWF-(2,1,444)  0.2592898E-09
        153        10         4                   1_GWF-(2,1,999)  0.3297051E-09                   1_GWF-(2,1,444)  0.2573212E-09
        154        11         1                   1_GWF-(2,1,999) -0.7287420E-03                   1_GWF-(1,1,457)  0.2480370E-05
        155        11         2                   1_GWF-(2,1,999) -0.2155526E-04                   1_GWF-(1,1,450)  0.4958223E-08
        156        11         3                   1_GWF-(2,1,999) -0.1297485E-05                   1_GWF-(1,1,443) -0.8886448E-09
        157        11         4                   1_GWF-(2,1,999)  0.3280410E-06                   1_GWF-(1,1,456)  0.4383296E-10
        158        12         1                   1_GWF-(2,1,999) -0.4027432E-02                   1_GWF-(2,1,455)  0.9038560E-06
        159        12         2                   1_GWF-(2,1,999) -0.1354152E-02                   1_GWF-(1,1,457) -0.5844450E-07
        160        12         3                   1_GWF-(2,1,999) -0.8861553E-03                   1_GWF-(1,1,457)  0.1886079E-07
        161        12         4                   1_GWF-(2,1,999) -0.5757827E-05                   1_GWF-(1,1,370)  0.1863938E-08
        162        12         5                   1_GWF-(2,1,999) -0.5311555E-04                   1_GWF-(1,1,373)  0.1190688E-08
        163        12         6                   1_GWF-(2,1,999)  0.1060212E-05                   1_GWF-(1,1,373)  0.1330990E-08
        164        12         7                   1_GWF-(2,1,999) -0.2735940E-04                   1_GWF-(1,1,356)  0.3412690E-09
        165        12         8                   1_GWF-(2,1,999)  0.1152846E-05                   1_GWF-(1,1,435) -0.3261844E-09
        166        13         1                   1_GWF-(2,1,999) -0.4034889E-02                   1_GWF-(2,1,458)  0.1487338E-05
        167        13         2                   1_GWF-(2,1,999) -0.1402587E-02                   1_GWF-(2,1,458) -0.3295670E-06
        168        13         3                   1_GWF-(2,1,999) -0.1717368E-03                   1_GWF-(1,1,460)  0.1712664E-07
        169        13         4                   1_GWF-(2,1,999) -0.2932740E-03                   1_GWF-(2,1,434)  0.6018294E-08
        170        13         5                   1_GWF-(2,1,999)  0.8421821E-04                   1_GWF-(1,1,460)  0.6132358E-09
        171        13         6                   1_GWF-(2,1,999)  0.7975069E-05                   1_GWF-(1,1,460)  0.5409819E-09
        172        13         7                   1_GWF-(2,1,999)  0.1096336E-03                   1_GWF-(1,1,998) -0.1054284E-08
        173        13         8                   1_GWF-(2,1,999)  0.3169938E-05                   1_GWF-(1,1,998) -0.1115334E-08
        174        13         9                   1_GWF-(2,1,999) -0.7430388E-04                   1_GWF-(1,1,460) -0.2254250E-09
        175        13        10                   1_GWF-(2,1,999) -0.3360927E-05                   1_GWF-(1,1,460) -0.1902999E-09
        176        14         1                   1_GWF-(2,1,999) -0.9083172E-03                   1_GWF-(1,1,465)  0.3049173E-05
        177        14         2                   1_GWF-(2,1,999) -0.2955822E-04                   1_GWF-(1,1,457)  0.1321962E-07
        178        14         3                   1_GWF-(2,1,999) -0.1502402E-05                   1_GWF-(2,1,452)  0.1289825E-08
        179        14         4                   1_GWF-(2,1,999)  0.2069473E-06                   1_GWF-(1,1,454)  0.1507572E-09
        180        14         5                   1_GWF-(2,1,999)  0.1217668E-08                   1_GWF-(1,1,454)  0.1517761E-09
        181        15         1                   1_GWF-(2,1,999) -0.8271730E-03                   1_GWF-(1,1,466)  0.4285114E-05
        182        15         2                   1_GWF-(2,1,999) -0.2147331E-04                   1_GWF-(1,1,459)  0.9465941E-08
        183        15         3                   1_GWF-(2,1,999) -0.1158382E-05                   1_GWF-(1,1,460) -0.1190785E-08
        184        15         4                   1_GWF-(2,1,999)  0.2062495E-06                   1_GWF-(1,1,461) -0.9307258E-10
        185        15         5                   1_GWF-(2,1,999)  0.2539503E-09                   1_GWF-(1,1,461) -0.9166162E-10
        186        16         1                   1_GWF-(2,1,999) -0.3628760E-02                   1_GWF-(2,1,464)  0.1226988E-05
        187        16         2                   1_GWF-(2,1,999) -0.8187099E-03                   1_GWF-(1,1,454)  0.7236632E-07
        188        16         3                   1_GWF-(2,1,999) -0.4005466E-03                   1_GWF-(1,1,465)  0.2484343E-07
        189        16         4                   1_GWF-(2,1,999)  0.2454107E-04                   1_GWF-(2,1,458)  0.1177368E-08
        190        16         5                   1_GWF-(2,1,999)  0.3266312E-03                   1_GWF-(1,1,458)  0.1662627E-07
        191        16         6                   1_GWF-(2,1,999) -0.3028961E-03                   1_GWF-(1,1,442)  0.4440166E-10
        192        16         7                   1_GWF-(2,1,999) -0.1520535E-08                   1_GWF-(1,1,442)  0.4437085E-10
        193        17         1                   1_GWF-(2,1,999) -0.3985231E-02                   1_GWF-(2,1,466)  0.1336896E-05
        194        17         2                   1_GWF-(2,1,999) -0.1087954E-02                   1_GWF-(2,1,466) -0.9954599E-07
        195        17         3                   1_GWF-(2,1,999) -0.5388034E-03                   1_GWF-(2,1,466)  0.3578002E-07
        196        17         4                   1_GWF-(2,1,999)  0.1304915E-03                   1_GWF-(2,1,466) -0.2033501E-08
        197        17         5                   1_GWF-(2,1,999) -0.2933187E-04                   1_GWF-(1,1,469) -0.9051691E-09
        198        17         6                   1_GWF-(2,1,999) -0.1122639E-05                   1_GWF-(1,1,469) -0.9539336E-09
        199        18         1                   1_GWF-(2,1,999) -0.1309675E-02                   1_GWF-(1,1,472)  0.2674690E-05
        200        18         2                   1_GWF-(2,1,999) -0.6563206E-04                   1_GWF-(1,1,462)  0.3430394E-07
        201        18         3                   1_GWF-(2,1,999) -0.5940106E-05                   1_GWF-(1,1,460)  0.1643825E-08
        202        18         4                   1_GWF-(2,1,999) -0.2370554E-07                   1_GWF-(1,1,472)  0.1849079E-09
        203        18         5                   1_GWF-(2,1,997) -0.1896961E-09                   1_GWF-(1,1,472)  0.1839743E-09
        204        19         1                   1_GWF-(2,1,999) -0.1194350E-02                   1_GWF-(1,1,473)  0.4756797E-05
        205        19         2                   1_GWF-(2,1,999) -0.5137821E-04                   1_GWF-(1,1,458)  0.3868612E-07
        206        19         3                   1_GWF-(2,1,999) -0.3780103E-05                   1_GWF-(2,1,458)  0.1805409E-08
        207        19         4                   1_GWF-(2,1,999)  0.2125546E-06                   1_GWF-(1,1,474)  0.3585939E-09
        208        19         5                   1_GWF-(2,1,999) -0.4907108E-09                   1_GWF-(1,1,474)  0.3528740E-09
        209        20         1                   1_GWF-(2,1,999) -0.5028269E-03                   1_GWF-(1,1,475)  0.2742389E-05
        210        20         2                   1_GWF-(2,1,999) -0.6198598E-05                   1_GWF-(1,1,472)  0.1824426E-08
        211        20         3                   1_GWF-(2,1,999) -0.7451703E-07                   1_GWF-(2,1,461)  0.6865155E-10
        212        20         4                   1_GWF-(2,1,474) -0.9535617E-10                   1_GWF-(2,1,461)  0.6859827E-10
        213        21         1                   1_GWF-(2,1,999) -0.2892523E-02                   1_GWF-(2,1,473)  0.1381396E-05
        214        21         2                   1_GWF-(2,1,999) -0.4421687E-03                   1_GWF-(1,1,463)  0.6824216E-07
        215        21         3                   1_GWF-(2,1,999) -0.1857906E-03                   1_GWF-(1,1,474)  0.3178918E-07
        216        21         4                   1_GWF-(2,1,999)  0.4390718E-04                   1_GWF-(1,1,474) -0.1019505E-08
        217        21         5                   1_GWF-(2,1,999)  0.1334748E-04                   1_GWF-(1,1,473)  0.4280768E-09
        218        21         6                   1_GWF-(2,1,999)  0.2349426E-05                   1_GWF-(1,1,474)  0.8339634E-09
        219        21         7                   1_GWF-(2,1,999) -0.9588950E-06                   1_GWF-(1,1,474)  0.7859316E-09
        220        22         1                   1_GWF-(2,1,999) -0.3984419E-02                   1_GWF-(1,1,752) -0.2482853E-05
        221        22         2                   1_GWF-(2,1,999) -0.1132052E-02                   1_GWF-(1,1,752)  0.3425513E-06
        222        22         3                   1_GWF-(2,1,999) -0.1502939E-02                   1_GWF-(1,1,752)  0.2861679E-06
        223        22         4                   1_GWF-(2,1,999)  0.1057531E-02                   1_GWF-(1,1,752) -0.2942896E-08
        224        22         5                   1_GWF-(2,1,999) -0.1186557E-03                   1_GWF-(1,1,998)  0.7678800E-09
        225        22         6                   1_GWF-(2,1,999)  0.6348811E-04                   1_GWF-(1,1,752) -0.5124637E-09
        226        22         7                   1_GWF-(2,1,999)  0.9677959E-07                   1_GWF-(1,1,752) -0.5086812E-09
        227        23         1                   1_GWF-(2,1,999) -0.8703535E-03                   1_GWF-(1,1,482)  0.3047398E-05
        228        23         2                   1_GWF-(2,1,999) -0.2901371E-04                   1_GWF-(1,1,474)  0.1595931E-07
        229        23         3                   1_GWF-(2,1,999) -0.1565310E-05                   1_GWF-(2,1,467)  0.1484230E-08
        230        23         4                   1_GWF-(2,1,999)  0.1904302E-06                   1_GWF-(1,1,461)  0.1066093E-09
        231        23         5                   1_GWF-(2,1,999)  0.3851406E-09                   1_GWF-(1,1,461)  0.1064037E-09
        232        24         1                   1_GWF-(2,1,999) -0.7581497E-03                   1_GWF-(1,1,483)  0.5381817E-05
        233        24         2                   1_GWF-(2,1,999) -0.1860870E-04                   1_GWF-(1,1,476)  0.1199737E-07
        234        24         3                   1_GWF-(2,1,999) -0.9732865E-06                   1_GWF-(1,1,476) -0.1146243E-08
        235        24         4                   1_GWF-(2,1,999)  0.1436467E-06                   1_GWF-(1,1,482)  0.2151105E-09
        236        25         1                   1_GWF-(2,1,999) -0.2812627E-02                   1_GWF-(2,1,481)  0.1369159E-05
        237        25         2                   1_GWF-(2,1,999) -0.4528795E-03                   1_GWF-(1,1,470)  0.7644126E-07
        238        25         3                   1_GWF-(2,1,999) -0.1954704E-03                   1_GWF-(1,1,482)  0.2896197E-07
        239        25         4                   1_GWF-(2,1,999)  0.3533619E-04                   1_GWF-(1,1,482) -0.1092572E-08
        240        25         5                   1_GWF-(2,1,999)  0.1902087E-04                   1_GWF-(1,1,482)  0.1342280E-08
        241        25         6                   1_GWF-(2,1,999) -0.9323059E-05                   1_GWF-(2,1,452)  0.8899494E-10
        242        25         7                   1_GWF-(2,1,999) -0.1788624E-08                   1_GWF-(2,1,452)  0.8922593E-10
        243        26         1                   1_GWF-(2,1,999) -0.3062229E-02                   1_GWF-(2,1,483)  0.1469077E-05
        244        26         2                   1_GWF-(2,1,999) -0.6182694E-03                   1_GWF-(1,1,466)  0.8950749E-07
        245        26         3                   1_GWF-(2,1,999) -0.2136850E-03                   1_GWF-(2,1,483)  0.2695672E-07
        246        26         4                   1_GWF-(2,1,999)  0.4390958E-04                   1_GWF-(1,1,484) -0.4712985E-08
        247        26         5                   1_GWF-(2,1,999) -0.7985710E-05                   1_GWF-(1,1,484) -0.2499723E-08
        248        26         6                   1_GWF-(2,1,999)  0.6299883E-05                   1_GWF-(1,1,484) -0.1470801E-08
        249        26         7                   1_GWF-(2,1,999) -0.7220142E-06                   1_GWF-(1,1,484) -0.1347120E-08
        250        27         1                   1_GWF-(2,1,999) -0.1008725E-02                   1_GWF-(1,1,489)  0.2846132E-05
        251        27         2                   1_GWF-(2,1,999) -0.4230977E-04                   1_GWF-(1,1,478)  0.3080534E-07
        252        27         3                   1_GWF-(2,1,999) -0.3398035E-05                   1_GWF-(2,1,472)  0.1626855E-08
        253        27         4                   1_GWF-(2,1,999)  0.1046157E-06                   1_GWF-(1,1,489)  0.1792205E-09
        254        27         5                   1_GWF-(2,1,995) -0.1798013E-09                   1_GWF-(1,1,489)  0.1783687E-09
        255        28         1                   1_GWF-(2,1,999) -0.7816328E-03                   1_GWF-(1,1,489)  0.2909496E-05
        256        28         2                   1_GWF-(2,1,999) -0.2575738E-04                   1_GWF-(2,1,486) -0.3776058E-07
        257        28         3                   1_GWF-(2,1,999)  0.1805259E-05                   1_GWF-(2,1,468)  0.1037008E-08
        258        28         4                   1_GWF-(2,1,999)  0.1387387E-06                   1_GWF-(1,1,489)  0.3236136E-09
        259        29         1                   1_GWF-(2,1,999) -0.2433720E-02                   1_GWF-(2,1,488)  0.1409043E-05
        260        29         2                   1_GWF-(2,1,999) -0.3514021E-03                   1_GWF-(1,1,476)  0.7582181E-07
        261        29         3                   1_GWF-(2,1,999) -0.1435669E-03                   1_GWF-(1,1,489)  0.2817047E-07
        262        29         4                   1_GWF-(2,1,999)  0.2850154E-04                   1_GWF-(1,1,489) -0.1108652E-08
        263        29         5                   1_GWF-(2,1,999)  0.1479506E-04                   1_GWF-(1,1,489)  0.1385353E-08
        264        29         6                   1_GWF-(2,1,999) -0.8694051E-05                   1_GWF-(1,1,489) -0.2250580E-09
        265        29         7                   1_GWF-(2,1,999) -0.1682967E-05                   1_GWF-(1,1,489) -0.5134147E-09
        266        30         1                   1_GWF-(2,1,999) -0.2561115E-02                   1_GWF-(2,1,490)  0.1528580E-05
        267        30         2                   1_GWF-(2,1,999) -0.4477796E-03                   1_GWF-(1,1,473)  0.8826607E-07
        268        30         3                   1_GWF-(2,1,999) -0.1226491E-03                   1_GWF-(2,1,490)  0.2020801E-07
        269        30         4                   1_GWF-(2,1,999)  0.2443602E-04                   1_GWF-(1,1,491) -0.5430851E-08
        270        30         5                   1_GWF-(2,1,999) -0.2841418E-04                   1_GWF-(1,1,491)  0.2707058E-08
        271        30         6                   1_GWF-(2,1,999)  0.4538709E-05                   1_GWF-(1,1,491)  0.2180735E-08
        272        30         7                   1_GWF-(2,1,999)  0.1337719E-04                   1_GWF-(1,1,491) -0.8798434E-09
        273        30         8                   1_GWF-(2,1,999)  0.5219034E-05                   1_GWF-(1,1,491) -0.2584198E-08
        274        30         9                   1_GWF-(2,1,999) -0.9660956E-05                   1_GWF-(1,1,493)  0.8814068E-11
        275        30        10                   1_GWF-(2,1,999) -0.3692518E-07                   1_GWF-(1,1,493)  0.1854472E-10
        276        31         1                   1_GWF-(2,1,999) -0.8137044E-03                   1_GWF-(1,1,496)  0.2950418E-05
        277        31         2                   1_GWF-(2,1,999) -0.3061325E-04                   1_GWF-(1,1,485)  0.2578373E-07
        278        31         3                   1_GWF-(2,1,999) -0.2174235E-05                   1_GWF-(2,1,479)  0.1708940E-08
        279        31         4                   1_GWF-(2,1,999)  0.1394908E-06                   1_GWF-(1,1,496)  0.1584375E-09
        280        31         5                   1_GWF-(2,1,992) -0.1726861E-09                   1_GWF-(1,1,496)  0.1578025E-09
        281        32         1                   1_GWF-(2,1,999) -0.4974041E-03                   1_GWF-(1,1,497)  0.4879831E-05
        282        32         2                   1_GWF-(2,1,999) -0.8917510E-05                   1_GWF-(1,1,490)  0.6767584E-08
        283        32         3                   1_GWF-(2,1,999) -0.3208825E-06                   1_GWF-(1,1,491) -0.6611039E-09
        284        32         4                   1_GWF-(2,1,999)  0.5650055E-07                   1_GWF-(1,1,496)  0.5127257E-10
        285        33         1                   1_GWF-(2,1,999) -0.1977234E-02                   1_GWF-(2,1,495)  0.1408293E-05
        286        33         2                   1_GWF-(2,1,999) -0.2433385E-03                   1_GWF-(1,1,483)  0.7063682E-07
        287        33         3                   1_GWF-(2,1,999) -0.9656331E-04                   1_GWF-(1,1,496)  0.2883625E-07
        288        33         4                   1_GWF-(2,1,999)  0.2497310E-04                   1_GWF-(1,1,496) -0.1108914E-08
        289        33         5                   1_GWF-(2,1,999)  0.1071492E-04                   1_GWF-(1,1,496)  0.1223388E-08
        290        33         6                   1_GWF-(2,1,999) -0.1410033E-05                   1_GWF-(1,1,496)  0.1041596E-08
        291        34         1                   1_GWF-(2,1,999) -0.2213253E-02                   1_GWF-(2,1,497)  0.1547629E-05
        292        34         2                   1_GWF-(2,1,999) -0.3756079E-03                   1_GWF-(2,1,497) -0.1112180E-06
        293        34         3                   1_GWF-(2,1,999) -0.1945898E-04                   1_GWF-(1,1,498)  0.4073633E-07
        294        34         4                   1_GWF-(2,1,999) -0.6045104E-04                   1_GWF-(1,1,500)  0.2472960E-08
        295        34         5                   1_GWF-(2,1,999) -0.2056142E-05                   1_GWF-(1,1,445)  0.1216289E-09
        296        34         6                   1_GWF-(2,1,999)  0.1115089E-07                   1_GWF-(1,1,445)  0.1209910E-09
        297        35         1                   1_GWF-(2,1,999) -0.3358427E-03                   1_GWF-(1,1,503)  0.3589257E-05
        298        35         2                   1_GWF-(2,1,999) -0.4230488E-05                   1_GWF-(1,1,498)  0.2540918E-08
        299        35         3                   1_GWF-(2,1,999) -0.5600983E-07                   1_GWF-(2,1,490)  0.1298772E-09
        300        35         4                   1_GWF-(2,1,506) -0.3028209E-09                   1_GWF-(2,1,490)  0.1296045E-09
        301        36         1                   1_GWF-(2,1,999) -0.6115662E-03                   1_GWF-(1,1,504)  0.4491710E-05
        302        36         2                   1_GWF-(2,1,999) -0.1792757E-04                   1_GWF-(1,1,494)  0.1934803E-07
        303        36         3                   1_GWF-(2,1,999) -0.1156626E-05                   1_GWF-(1,1,503)  0.1268368E-08
        304        36         4                   1_GWF-(2,1,999)  0.9129124E-07                   1_GWF-(1,1,503)  0.1734736E-09
        305        37         1                   1_GWF-(2,1,999) -0.1715372E-02                   1_GWF-(2,1,502)  0.1432939E-05
        306        37         2                   1_GWF-(2,1,999) -0.2104339E-03                   1_GWF-(1,1,476)  0.7379931E-07
        307        37         3                   1_GWF-(2,1,999) -0.8407990E-04                   1_GWF-(1,1,503)  0.2674525E-07
        308        37         4                   1_GWF-(2,1,999)  0.1911051E-04                   1_GWF-(1,1,503) -0.1146651E-08
        309        37         5                   1_GWF-(2,1,999)  0.1050082E-04                   1_GWF-(1,1,503)  0.1480869E-08
        310        37         6                   1_GWF-(2,1,999)  0.2487700E-04                   1_GWF-(1,1,475)  0.9450793E-08
        311        37         7                   1_GWF-(2,1,999) -0.3092557E-04                   1_GWF-(1,1,451)  0.6789943E-11
        312        37         8                   1_GWF-(2,1,998) -0.1069815E-10                   1_GWF-(1,1,451)  0.6788829E-11
        313        38         1                   1_GWF-(2,1,999) -0.1709114E-02                   1_GWF-(2,1,503)  0.1422055E-05
        314        38         2                   1_GWF-(2,1,999) -0.2332739E-03                   1_GWF-(1,1,489)  0.8001635E-07
        315        38         3                   1_GWF-(2,1,999) -0.9213830E-04                   1_GWF-(1,1,504)  0.2297703E-07
        316        38         4                   1_GWF-(2,1,999)  0.1455820E-04                   1_GWF-(2,1,496)  0.1135820E-08
        317        38         5                   1_GWF-(2,1,999)  0.2284498E-04                   1_GWF-(1,1,496)  0.6010027E-08
        318        38         6                   1_GWF-(2,1,999) -0.1598071E-04                   1_GWF-(1,1,488)  0.2162143E-10
        319        38         7                   1_GWF-(2,1,999) -0.8380536E-10                   1_GWF-(1,1,488)  0.2160436E-10
        320        39         1                   1_GWF-(2,1,999) -0.1502794E-02                   1_GWF-(2,1,505)  0.1632219E-05
        321        39         2                   1_GWF-(2,1,999) -0.1951062E-03                   1_GWF-(1,1,488)  0.7614834E-07
        322        39         3                   1_GWF-(2,1,999) -0.2498842E-04                   1_GWF-(1,1,507)  0.1193510E-07
        323        39         4                   1_GWF-(2,1,999) -0.1759408E-04                   1_GWF-(2,1,505) -0.1391896E-08
        324        39         5                   1_GWF-(2,1,999)  0.1951404E-05                   1_GWF-(1,1,493)  0.6482153E-09
        325        39         6                   1_GWF-(2,1,999) -0.5013289E-07                   1_GWF-(1,1,493)  0.6198051E-09
        326        40         1                   1_GWF-(2,1,999) -0.5825576E-03                   1_GWF-(1,1,510)  0.2721153E-05
        327        40         2                   1_GWF-(2,1,999) -0.2191026E-04                   1_GWF-(1,1,497)  0.2921526E-07
        328        40         3                   1_GWF-(2,1,999) -0.1864976E-05                   1_GWF-(2,1,491)  0.1575948E-08
        329        40         4                   1_GWF-(2,1,999)  0.7033827E-07                   1_GWF-(1,1,489)  0.1978451E-09
        330        40         5                   1_GWF-(2,1,996) -0.2005966E-09                   1_GWF-(1,1,489)  0.1958994E-09
        331        41         1                   1_GWF-(2,1,999) -0.5919381E-03                   1_GWF-(1,1,511)  0.2873403E-05
        332        41         2                   1_GWF-(2,1,999) -0.2331111E-04                   1_GWF-(1,1,498)  0.3015911E-07
        333        41         3                   1_GWF-(2,1,999) -0.2183213E-05                   1_GWF-(1,1,510)  0.1823387E-08
        334        41         4                   1_GWF-(2,1,999) -0.9594030E-07                   1_GWF-(1,1,510)  0.1762983E-09
        335        41         5                   1_GWF-(2,1,516) -0.3458849E-09                   1_GWF-(1,1,510)  0.1760058E-09
        336        42         1                   1_GWF-(2,1,999) -0.1236335E-02                   1_GWF-(2,1,509)  0.1444941E-05
        337        42         2                   1_GWF-(2,1,999) -0.1430794E-03                   1_GWF-(1,1,482)  0.8128965E-07
        338        42         3                   1_GWF-(2,1,999) -0.5682483E-04                   1_GWF-(1,1,510)  0.2454229E-07
        339        42         4                   1_GWF-(2,1,999)  0.1194774E-04                   1_GWF-(1,1,510) -0.9517201E-09
        340        42         5                   1_GWF-(2,1,999)  0.3880249E-05                   1_GWF-(1,1,510)  0.1243572E-08
        341        42         6                   1_GWF-(2,1,999) -0.5517029E-06                   1_GWF-(1,1,510) -0.1245290E-09
        342        42         7                   1_GWF-(2,1,999) -0.1028189E-07                   1_GWF-(1,1,510) -0.1486566E-09
        343        43         1                   1_GWF-(2,1,999) -0.1097050E-02                   1_GWF-(2,1,511)  0.1628451E-05
        344        43         2                   1_GWF-(2,1,999) -0.1292648E-03                   1_GWF-(1,1,494)  0.7772460E-07
        345        43         3                   1_GWF-(2,1,999) -0.2492368E-04                   1_GWF-(2,1,511)  0.1263584E-07
        346        43         4                   1_GWF-(2,1,999)  0.4153072E-05                   1_GWF-(1,1,514) -0.5151922E-08
        347        43         5                   1_GWF-(2,1,999) -0.1537915E-05                   1_GWF-(1,1,514)  0.3121107E-08
        348        43         6                   1_GWF-(2,1,999) -0.1924338E-05                   1_GWF-(1,1,514) -0.7803902E-10
        349        43         7                   1_GWF-(2,1,999) -0.2882598E-09                   1_GWF-(1,1,514) -0.7864725E-10
        350        44         1                   1_GWF-(2,1,999) -0.3003276E-03                   1_GWF-(1,1,516)  0.2914229E-05
        351        44         2                   1_GWF-(2,1,999) -0.7085525E-05                   1_GWF-(1,1,507)  0.1059350E-07
        352        44         3                   1_GWF-(2,1,999) -0.3193336E-06                   1_GWF-(2,1,499)  0.9213144E-09
        353        44         4                   1_GWF-(2,1,999)  0.3630049E-07                   1_GWF-(2,1,500)  0.1404813E-09
        354        45         1                   1_GWF-(2,1,999) -0.4338707E-03                   1_GWF-(1,1,517)  0.2927632E-05
        355        45         2                   1_GWF-(2,1,999) -0.1638645E-04                   1_GWF-(1,1,504)  0.2966622E-07
        356        45         3                   1_GWF-(2,1,999) -0.1526841E-05                   1_GWF-(1,1,516)  0.1789631E-08
        357        45         4                   1_GWF-(2,1,999) -0.5505907E-07                   1_GWF-(1,1,516)  0.1737187E-09
        358        45         5                   1_GWF-(2,1,522) -0.2978261E-09                   1_GWF-(1,1,516)  0.1734346E-09
        359        46         1                   1_GWF-(2,1,999) -0.8744864E-03                   1_GWF-(2,1,515)  0.1447540E-05
        360        46         2                   1_GWF-(2,1,999) -0.9096897E-04                   1_GWF-(1,1,488)  0.8002533E-07
        361        46         3                   1_GWF-(2,1,999) -0.3838931E-04                   1_GWF-(1,1,516)  0.2499951E-07
        362        46         4                   1_GWF-(2,1,999)  0.9022056E-05                   1_GWF-(1,1,516) -0.1054280E-08
        363        46         5                   1_GWF-(2,1,999)  0.3871367E-05                   1_GWF-(1,1,516)  0.1367774E-08
        364        46         6                   1_GWF-(2,1,999) -0.2419493E-05                   1_GWF-(1,1,516) -0.5422985E-09
        365        46         7                   1_GWF-(2,1,999)  0.7426329E-06                   1_GWF-(1,1,516)  0.2548628E-10
        366        46         8                   1_GWF-(2,1,999)  0.1088272E-08                   1_GWF-(1,1,516)  0.2631583E-10
        367        47         1                   1_GWF-(2,1,999) -0.7429095E-03                   1_GWF-(1,1,517)  0.1681517E-05
        368        47         2                   1_GWF-(2,1,999) -0.8040278E-04                   1_GWF-(2,1,517) -0.8974544E-07
        369        47         3                   1_GWF-(2,1,999)  0.1930111E-05                   1_GWF-(1,1,519)  0.3188748E-07
        370        47         4                   1_GWF-(2,1,999) -0.1497614E-04                   1_GWF-(1,1,520)  0.2762134E-08
        371        47         5                   1_GWF-(2,1,999)  0.2473909E-06                   1_GWF-(1,1,468)  0.1311235E-09
        372        47         6                   1_GWF-(2,1,999) -0.6860306E-09                   1_GWF-(1,1,468)  0.1296876E-09
        373        48         1                   1_GWF-(2,1,999) -0.1285583E-03                   1_GWF-(1,1,522)  0.2879916E-05
        374        48         2                   1_GWF-(2,1,999) -0.1492173E-05                   1_GWF-(1,1,517)  0.2235013E-08
        375        48         3                   1_GWF-(2,1,999) -0.1844914E-07                   1_GWF-(2,1,506)  0.1218058E-09
        376        48         4                   1_GWF-(2,1,526) -0.1815581E-09                   1_GWF-(2,1,506)  0.1214970E-09
        377        49         1                   1_GWF-(2,1,999) -0.3117898E-03                   1_GWF-(1,1,523)  0.3033078E-05
        378        49         2                   1_GWF-(2,1,999) -0.1214823E-04                   1_GWF-(1,1,510)  0.3761841E-07
        379        49         3                   1_GWF-(2,1,999) -0.1271338E-05                   1_GWF-(1,1,522)  0.2541256E-08
        380        49         4                   1_GWF-(2,1,999) -0.8994607E-07                   1_GWF-(1,1,522)  0.2531947E-09
        381        49         5                   1_GWF-(2,1,527)  0.3439434E-09                   1_GWF-(1,1,522)  0.2532930E-09
        382        50         1                   1_GWF-(2,1,999) -0.5388996E-03                   1_GWF-(2,1,521)  0.1458575E-05
        383        50         2                   1_GWF-(2,1,999) -0.4756098E-04                   1_GWF-(1,1,494)  0.7777555E-07
        384        50         3                   1_GWF-(2,1,999) -0.2244948E-04                   1_GWF-(1,1,522)  0.2446436E-07
        385        50         4                   1_GWF-(2,1,999)  0.5771476E-05                   1_GWF-(1,1,522) -0.1081936E-08
        386        50         5                   1_GWF-(2,1,999)  0.2718666E-05                   1_GWF-(1,1,522)  0.1417299E-08
        387        50         6                   1_GWF-(2,1,999) -0.2637712E-05                   1_GWF-(1,1,522) -0.1335052E-08
        388        50         7                   1_GWF-(2,1,999)  0.1262855E-05                   1_GWF-(1,1,522)  0.1597804E-10
        389        50         8                   1_GWF-(2,1,999)  0.5073542E-10                   1_GWF-(1,1,522)  0.1603119E-10
        390        51         1                   1_GWF-(2,1,999) -0.4174616E-03                   1_GWF-(1,1,523)  0.1820430E-05
        391        51         2                   1_GWF-(2,1,999) -0.3829668E-04                   1_GWF-(2,1,523) -0.9634596E-07
        392        51         3                   1_GWF-(2,1,999) -0.1651939E-05                   1_GWF-(1,1,524)  0.1990150E-07
        393        51         4                   1_GWF-(2,1,999) -0.4275661E-05                   1_GWF-(1,1,524)  0.2627510E-08
        394        51         5                   1_GWF-(2,1,999)  0.6860958E-07                   1_GWF-(1,1,475)  0.1246950E-09
        395        51         6                   1_GWF-(2,1,999) -0.1557788E-09                   1_GWF-(1,1,475)  0.1236297E-09
        396        52         1                   1_GWF-(2,1,999) -0.5510693E-04                   1_GWF-(1,1,529)  0.3764580E-05
        397        52         2                   1_GWF-(2,1,999) -0.4446023E-06                   1_GWF-(1,1,529)  0.1980945E-08
        398        52         3                   1_GWF-(2,1,999) -0.4425126E-09                   1_GWF-(1,1,529) -0.1200379E-09
        399        52         4                   1_GWF-(2,1,532) -0.1301022E-09                   1_GWF-(1,1,529) -0.1199629E-09
        400        53         1                   1_GWF-(2,1,999) -0.7644527E-04                   1_GWF-(1,1,530)  0.3546949E-05
        401        53         2                   1_GWF-(2,1,999) -0.1163526E-05                   1_GWF-(1,1,523)  0.4270600E-08
        402        53         3                   1_GWF-(2,1,999) -0.3115312E-07                   1_GWF-(1,1,523) -0.4210725E-09
        403        53         4                   1_GWF-(2,1,999) -0.1842839E-08                   1_GWF-(1,1,523) -0.5619038E-09
        404        54         1                   1_GWF-(2,1,999) -0.2353772E-03                   1_GWF-(1,1,528)  0.1430462E-05
        405        54         2                   1_GWF-(2,1,999) -0.1248693E-04                   1_GWF-(1,1,503)  0.6866934E-07
        406        54         3                   1_GWF-(2,1,999) -0.1025526E-04                   1_GWF-(1,1,529)  0.2772957E-07
        407        54         4                   1_GWF-(2,1,999)  0.4364864E-05                   1_GWF-(1,1,529) -0.8977541E-09
        408        54         5                   1_GWF-(2,1,999)  0.2684072E-06                   1_GWF-(1,1,529) -0.4508671E-09
        409        55         1                   1_GWF-(2,1,999) -0.1378504E-03                   1_GWF-(2,1,529)  0.1383898E-05
        410        55         2                   1_GWF-(2,1,999)  0.6116864E-05                   1_GWF-(1,1,501)  0.8828424E-07
        411        55         3                   1_GWF-(2,1,999) -0.6819201E-05                   1_GWF-(1,1,530)  0.2569760E-07
        412        55         4                   1_GWF-(2,1,999)  0.2869897E-05                   1_GWF-(2,1,522)  0.1202544E-08
        413        55         5                   1_GWF-(2,1,999)  0.1735444E-05                   1_GWF-(1,1,521)  0.2698856E-08
        414        55         6                   1_GWF-(2,1,999) -0.7452236E-06                   1_GWF-(1,1,511)  0.1985899E-10
        415        55         7                   1_GWF-(2,1,998) -0.2865255E-10                   1_GWF-(1,1,511)  0.1984101E-10
        416        56         1                   1_GWF-(2,1,998) -0.6157416E-05                   1_GWF-(2,1,531)  0.3057022E-05
        417        56         2                   1_GWF-(2,1,999)  0.1281564E-04                   1_GWF-(1,1,514)  0.1504781E-06
        418        56         3                   1_GWF-(2,1,999)  0.8686417E-06                   1_GWF-(1,1,506)  0.1363784E-07
        419        56         4                   1_GWF-(2,1,999) -0.2205184E-06                   1_GWF-(1,1,533)  0.1581136E-08
        420        56         5                   1_GWF-(2,1,999)  0.2733091E-07                   1_GWF-(1,1,534) -0.3198308E-09
        421        56         6                   1_GWF-(2,1,963) -0.3280674E-09                   1_GWF-(1,1,534) -0.3199772E-09
        422        57         1                   1_GWF-(2,1,999)  0.9368929E-05                   1_GWF-(1,1,536)  0.3436752E-05
        423        57         2                   1_GWF-(2,1,999)  0.1976449E-06                   1_GWF-(1,1,527)  0.8063956E-08
        424        57         3                   1_GWF-(2,1,999)  0.5049707E-08                   1_GWF-(2,1,521)  0.6491407E-09
        425        57         4                   1_GWF-(2,1,993)  0.6310434E-09                   1_GWF-(2,1,521)  0.3731410E-09
        426        58         1                   1_GWF-(2,1,999)  0.3376820E-04                   1_GWF-(1,1,537)  0.2991585E-05
        427        58         2                   1_GWF-(2,1,999)  0.1511233E-05                   1_GWF-(1,1,525)  0.2668135E-07
        428        58         3                   1_GWF-(2,1,999)  0.8345115E-07                   1_GWF-(1,1,536)  0.1537695E-08
        429        58         4                   1_GWF-(2,1,999) -0.3332679E-09                   1_GWF-(1,1,536)  0.1525093E-09
        430        58         5                   1_GWF-(2,1,542) -0.1579120E-09                   1_GWF-(1,1,536)  0.1523027E-09
        431        59         1                   1_GWF-(2,1,999)  0.1769069E-03                   1_GWF-(2,1,535)  0.1446109E-05
        432        59         2                   1_GWF-(2,1,999)  0.3643488E-04                   1_GWF-(1,1,508)  0.7865104E-07
        433        59         3                   1_GWF-(2,1,999)  0.7554495E-05                   1_GWF-(1,1,536)  0.2548252E-07
        434        59         4                   1_GWF-(2,1,999) -0.4052000E-06                   1_GWF-(1,1,536) -0.1114128E-08
        435        59         5                   1_GWF-(2,1,999) -0.4574305E-06                   1_GWF-(1,1,536)  0.1434241E-08
        436        59         6                   1_GWF-(2,1,999)  0.3738894E-06                   1_GWF-(1,1,536) -0.8756692E-09
        437        59         7                   1_GWF-(2,1,999) -0.1479868E-06                   1_GWF-(1,1,536)  0.2145906E-10
        438        59         8                   1_GWF-(2,1,999) -0.5613377E-10                   1_GWF-(1,1,536)  0.2179662E-10
        439        60         1                   1_GWF-(2,1,999)  0.2780974E-03                   1_GWF-(1,1,537)  0.1994698E-05
        440        60         2                   1_GWF-(2,1,999)  0.5095017E-04                   1_GWF-(2,1,537) -0.1062048E-06
        441        60         3                   1_GWF-(2,1,999)  0.5750010E-05                   1_GWF-(1,1,538)  0.1629673E-07
        442        60         4                   1_GWF-(2,1,999)  0.1171312E-05                   1_GWF-(1,1,538)  0.2522800E-08
        443        60         5                   1_GWF-(2,1,999)  0.4634869E-07                   1_GWF-(1,1,538) -0.1539927E-09
        444        60         6                   1_GWF-(2,1,997)  0.2061882E-09                   1_GWF-(1,1,538) -0.1555719E-09
        445        61         1                   1_GWF-(2,1,999)  0.3205467E-04                   1_GWF-(1,1,543)  0.4189272E-05
        446        61         2                   1_GWF-(2,1,999)  0.1517430E-06                   1_GWF-(1,1,543)  0.4322023E-08
        447        61         3                   1_GWF-(2,1,999) -0.1941864E-08                   1_GWF-(1,1,543)  0.2815549E-09
        448        61         4                   1_GWF-(2,1,545) -0.5614405E-09                   1_GWF-(1,1,543)  0.2810327E-09
        449        62         1                   1_GWF-(2,1,999)  0.9372816E-04                   1_GWF-(1,1,544)  0.3448366E-05
        450        62         2                   1_GWF-(2,1,999)  0.2140352E-05                   1_GWF-(1,1,535)  0.1179860E-07
        451        62         3                   1_GWF-(2,1,999)  0.1066317E-06                   1_GWF-(1,1,535) -0.1374441E-08
        452        62         4                   1_GWF-(2,1,999) -0.1709712E-07                   1_GWF-(1,1,543)  0.8581770E-10
        453        63         1                   1_GWF-(2,1,999)  0.3618210E-03                   1_GWF-(1,1,543)  0.1529079E-05
        454        63         2                   1_GWF-(2,1,999)  0.4646586E-04                   1_GWF-(1,1,516)  0.6629057E-07
        455        63         3                   1_GWF-(2,1,999)  0.1278391E-04                   1_GWF-(1,1,543)  0.2510469E-07
        456        63         4                   1_GWF-(2,1,999) -0.2595755E-05                   1_GWF-(1,1,543) -0.1031215E-08
        457        63         5                   1_GWF-(2,1,999) -0.9775509E-06                   1_GWF-(1,1,542)  0.7176764E-09
        458        63         6                   1_GWF-(2,1,999) -0.5732941E-07                   1_GWF-(1,1,543)  0.9313475E-09
        459        64         1                   1_GWF-(2,1,999)  0.5232807E-03                   1_GWF-(2,1,543)  0.1399636E-05
        460        64         2                   1_GWF-(2,1,999)  0.9110342E-04                   1_GWF-(1,1,515)  0.8845905E-07
        461        64         3                   1_GWF-(2,1,999)  0.3005686E-04                   1_GWF-(1,1,544)  0.2514403E-07
        462        64         4                   1_GWF-(2,1,999) -0.3515119E-05                   1_GWF-(2,1,535)  0.1240223E-08
        463        64         5                   1_GWF-(2,1,999) -0.2839698E-05                   1_GWF-(1,1,536)  0.2703079E-08
        464        64         6                   1_GWF-(2,1,999)  0.9623522E-06                   1_GWF-(1,1,526)  0.2066007E-10
        465        64         7                   1_GWF-(2,1,999)  0.2136646E-10                   1_GWF-(1,1,526)  0.2063857E-10
        466        65         1                   1_GWF-(2,1,999)  0.5054661E-03                   1_GWF-(2,1,545)  0.3036190E-05
        467        65         2                   1_GWF-(2,1,999)  0.6486149E-04                   1_GWF-(1,1,528)  0.1529318E-06
        468        65         3                   1_GWF-(2,1,999)  0.9572377E-05                   1_GWF-(1,1,520)  0.1449225E-07
        469        65         4                   1_GWF-(2,1,999)  0.2504009E-05                   1_GWF-(1,1,547)  0.1581631E-08
        470        65         5                   1_GWF-(2,1,999)  0.4007837E-07                   1_GWF-(1,1,548) -0.2611566E-09
        471        65         6                   1_GWF-(2,1,981) -0.2621066E-09                   1_GWF-(1,1,548) -0.2612024E-09
        472        66         1                   1_GWF-(2,1,999)  0.1669237E-03                   1_GWF-(1,1,550)  0.3347198E-05
        473        66         2                   1_GWF-(2,1,999)  0.4255139E-05                   1_GWF-(1,1,540)  0.1366657E-07
        474        66         3                   1_GWF-(2,1,999)  0.2049035E-06                   1_GWF-(2,1,533)  0.1183971E-08
        475        66         4                   1_GWF-(2,1,999) -0.2705129E-07                   1_GWF-(1,1,533)  0.1252164E-09
        476        66         5                   1_GWF-(2,1,999) -0.1600012E-09                   1_GWF-(1,1,533)  0.1260511E-09
        477        67         1                   1_GWF-(2,1,999)  0.2378804E-03                   1_GWF-(1,1,551)  0.2962800E-05
        478        67         2                   1_GWF-(2,1,999)  0.8822990E-05                   1_GWF-(1,1,539)  0.2659657E-07
        479        67         3                   1_GWF-(2,1,999)  0.7299614E-06                   1_GWF-(1,1,550)  0.1521303E-08
        480        67         4                   1_GWF-(2,1,999)  0.7981363E-08                   1_GWF-(1,1,550)  0.1507000E-09
        481        67         5                   1_GWF-(2,1,556) -0.1626704E-09                   1_GWF-(1,1,550)  0.1504966E-09
        482        68         1                   1_GWF-(2,1,999)  0.5982352E-03                   1_GWF-(2,1,549)  0.1444592E-05
        483        68         2                   1_GWF-(2,1,999)  0.7863446E-04                   1_GWF-(1,1,522)  0.8054229E-07
        484        68         3                   1_GWF-(2,1,999)  0.2706815E-04                   1_GWF-(1,1,550)  0.2583807E-07
        485        68         4                   1_GWF-(2,1,999) -0.5126165E-05                   1_GWF-(1,1,550) -0.1101817E-08
        486        68         5                   1_GWF-(2,1,999) -0.2475849E-05                   1_GWF-(1,1,550)  0.1402275E-08
        487        68         6                   1_GWF-(2,1,999)  0.1486006E-05                   1_GWF-(1,1,550) -0.4315191E-09
        488        68         7                   1_GWF-(2,1,999) -0.4068718E-06                   1_GWF-(1,1,550)  0.4839462E-10
        489        68         8                   1_GWF-(2,1,999) -0.1400748E-08                   1_GWF-(1,1,550)  0.5003738E-10
        490        69         1                   1_GWF-(2,1,999)  0.6197140E-03                   1_GWF-(1,1,551)  0.1665201E-05
        491        69         2                   1_GWF-(2,1,999)  0.8555122E-04                   1_GWF-(2,1,551) -0.9287463E-07
        492        69         3                   1_GWF-(2,1,999)  0.3385181E-05                   1_GWF-(1,1,553)  0.3168610E-07
        493        69         4                   1_GWF-(2,1,999)  0.1017099E-04                   1_GWF-(1,1,554)  0.2815804E-08
        494        69         5                   1_GWF-(2,1,999) -0.1311633E-06                   1_GWF-(1,1,548)  0.1290573E-09
        495        69         6                   1_GWF-(2,1,999)  0.4898947E-09                   1_GWF-(1,1,502)  0.1271953E-09
        496        70         1                   1_GWF-(2,1,999)  0.1136575E-03                   1_GWF-(1,1,556)  0.2819984E-05
        497        70         2                   1_GWF-(2,1,999)  0.1384095E-05                   1_GWF-(1,1,551)  0.2677424E-08
        498        70         3                   1_GWF-(2,1,999)  0.1712429E-07                   1_GWF-(2,1,544)  0.1281874E-09
        499        70         4                   1_GWF-(2,1,562) -0.3012302E-09                   1_GWF-(2,1,544)  0.1277885E-09
        500        71         1                   1_GWF-(2,1,999)  0.1047605E-03                   1_GWF-(1,1,558)  0.3016385E-05
        501        71         2                   1_GWF-(2,1,999)  0.1122855E-05                   1_GWF-(1,1,554)  0.1674051E-08
        502        71         3                   1_GWF-(2,1,999)  0.1043306E-07                   1_GWF-(2,1,543)  0.6637923E-10
        503        71         4                   1_GWF-(2,1,558) -0.8898559E-10                   1_GWF-(2,1,543)  0.6633210E-10
        504        72         1                   1_GWF-(2,1,999)  0.5336044E-03                   1_GWF-(1,1,556)  0.1526022E-05
        505        72         2                   1_GWF-(2,1,999)  0.5188624E-04                   1_GWF-(1,1,531)  0.5925372E-07
        506        72         3                   1_GWF-(2,1,999)  0.2399793E-04                   1_GWF-(1,1,556)  0.4134106E-07
        507        72         4                   1_GWF-(2,1,999) -0.1163947E-04                   1_GWF-(1,1,529)  0.5421231E-09
        508        72         5                   1_GWF-(2,1,999) -0.7131219E-06                   1_GWF-(1,1,556)  0.2147034E-09
        509        72         6                   1_GWF-(2,1,999) -0.1545873E-07                   1_GWF-(1,1,556)  0.2314686E-09
        510        73         1                   1_GWF-(2,1,999)  0.7628526E-03                   1_GWF-(2,1,556)  0.1382298E-05
        511        73         2                   1_GWF-(2,1,999)  0.1371722E-03                   1_GWF-(1,1,528)  0.1032589E-06
        512        73         3                   1_GWF-(2,1,999)  0.6198877E-04                   1_GWF-(1,1,558)  0.2639420E-07
        513        73         4                   1_GWF-(2,1,999) -0.1017742E-04                   1_GWF-(1,1,551)  0.1558746E-08
        514        73         5                   1_GWF-(2,1,999) -0.5538288E-06                   1_GWF-(1,1,552)  0.1937015E-08
        515        73         6                   1_GWF-(2,1,999) -0.1574179E-05                   1_GWF-(1,1,559) -0.7637867E-10
        516        73         7                   1_GWF-(2,1,999) -0.4159894E-09                   1_GWF-(1,1,559) -0.7668856E-10
        517        74         1                   1_GWF-(2,1,999)  0.5281378E-03                   1_GWF-(2,1,559)  0.3019697E-05
        518        74         2                   1_GWF-(2,1,999)  0.5375995E-04                   1_GWF-(1,1,544)  0.1320217E-06
        519        74         3                   1_GWF-(2,1,999)  0.8372145E-05                   1_GWF-(1,1,534)  0.1075915E-07
        520        74         4                   1_GWF-(2,1,999)  0.1828420E-05                   1_GWF-(1,1,561)  0.1793126E-08
        521        74         5                   1_GWF-(2,1,999) -0.1405000E-06                   1_GWF-(1,1,562) -0.3679905E-09
        522        74         6                   1_GWF-(2,1,998)  0.4106316E-09                   1_GWF-(1,1,562) -0.3686396E-09
        523        75         1                   1_GWF-(2,1,999)  0.2274457E-03                   1_GWF-(1,1,564)  0.3168091E-05
        524        75         2                   1_GWF-(2,1,999)  0.7860383E-05                   1_GWF-(1,1,552)  0.2686666E-07
        525        75         3                   1_GWF-(2,1,999)  0.5846572E-06                   1_GWF-(2,1,546)  0.1658625E-08
        526        75         4                   1_GWF-(2,1,999) -0.3928968E-07                   1_GWF-(1,1,544)  0.1949114E-09
        527        75         5                   1_GWF-(2,1,981)  0.1948902E-09                   1_GWF-(1,1,544)  0.1932144E-09
        528        76         1                   1_GWF-(2,1,999)  0.2265662E-03                   1_GWF-(1,1,565)  0.2957260E-05
        529        76         2                   1_GWF-(2,1,999)  0.7768823E-05                   1_GWF-(1,1,553)  0.2253818E-07
        530        76         3                   1_GWF-(2,1,999)  0.6130497E-06                   1_GWF-(1,1,564)  0.1235663E-08
        531        76         4                   1_GWF-(2,1,999) -0.8912025E-08                   1_GWF-(1,1,564)  0.1249746E-09
        532        76         5                   1_GWF-(2,1,569) -0.1377130E-09                   1_GWF-(1,1,564)  0.1248468E-09
        533        77         1                   1_GWF-(2,1,999)  0.5502292E-03                   1_GWF-(2,1,563)  0.1440070E-05
        534        77         2                   1_GWF-(2,1,999)  0.6570745E-04                   1_GWF-(1,1,536)  0.8204884E-07
        535        77         3                   1_GWF-(2,1,999)  0.2585558E-04                   1_GWF-(1,1,564)  0.2654411E-07
        536        77         4                   1_GWF-(2,1,999) -0.5540160E-05                   1_GWF-(1,1,564) -0.1110325E-08
        537        77         5                   1_GWF-(2,1,999) -0.2234461E-05                   1_GWF-(1,1,564)  0.1399643E-08
        538        77         6                   1_GWF-(2,1,999)  0.1006500E-05                   1_GWF-(1,1,564) -0.2339969E-09
        539        77         7                   1_GWF-(2,1,999)  0.5487821E-06                   1_GWF-(1,1,564) -0.1116686E-08
        540        77         8                   1_GWF-(2,1,999) -0.7173526E-06                   1_GWF-(1,1,564)  0.1505471E-10
        541        77         9                   1_GWF-(2,1,571) -0.2165507E-10                   1_GWF-(1,1,564)  0.1505591E-10
        542        78         1                   1_GWF-(2,1,999)  0.5156067E-03                   1_GWF-(2,1,565)  0.1621318E-05
        543        78         2                   1_GWF-(2,1,999)  0.6493326E-04                   1_GWF-(2,1,565) -0.8196312E-07
        544        78         3                   1_GWF-(2,1,999)  0.1686315E-04                   1_GWF-(2,1,565)  0.2302156E-07
        545        78         4                   1_GWF-(2,1,999) -0.4370257E-05                   1_GWF-(2,1,565) -0.4261259E-08
        546        78         5                   1_GWF-(2,1,999) -0.5840712E-06                   1_GWF-(1,1,566) -0.1428862E-08
        547        78         6                   1_GWF-(2,1,999) -0.3543548E-07                   1_GWF-(1,1,566) -0.1570457E-08
        548        78         7                   1_GWF-(2,1,999)  0.2903801E-06                   1_GWF-(2,1,565) -0.3948727E-09
        549        78         8                   1_GWF-(2,1,999)  0.2025460E-07                   1_GWF-(2,1,565) -0.3217666E-09
        550        79         1                   1_GWF-(2,1,999)  0.1338766E-03                   1_GWF-(1,1,570)  0.2909736E-05
        551        79         2                   1_GWF-(2,1,999)  0.2904308E-05                   1_GWF-(1,1,561)  0.8483297E-08
        552        79         3                   1_GWF-(2,1,999)  0.1139198E-06                   1_GWF-(2,1,553)  0.7216014E-09
        553        79         4                   1_GWF-(2,1,999) -0.8401626E-08                   1_GWF-(2,1,554)  0.3204614E-09
        554        80         1                   1_GWF-(2,1,999)  0.2285898E-03                   1_GWF-(1,1,571)  0.2862554E-05
        555        80         2                   1_GWF-(2,1,999)  0.9647020E-05                   1_GWF-(1,1,558)  0.3616110E-07
        556        80         3                   1_GWF-(2,1,999)  0.9777924E-06                   1_GWF-(1,1,570)  0.2516852E-08
        557        80         4                   1_GWF-(2,1,999)  0.8558577E-07                   1_GWF-(1,1,570)  0.2347552E-09
        558        80         5                   1_GWF-(2,1,574)  0.3636962E-09                   1_GWF-(1,1,570)  0.2347947E-09
        559        81         1                   1_GWF-(2,1,999)  0.4435894E-03                   1_GWF-(2,1,569)  0.1445584E-05
        560        81         2                   1_GWF-(2,1,999)  0.5129813E-04                   1_GWF-(1,1,542)  0.8400138E-07
        561        81         3                   1_GWF-(2,1,999)  0.2062021E-04                   1_GWF-(1,1,570)  0.2602754E-07
        562        81         4                   1_GWF-(2,1,999) -0.4388492E-05                   1_GWF-(1,1,570) -0.1057686E-08
        563        81         5                   1_GWF-(2,1,999) -0.1329009E-05                   1_GWF-(1,1,570)  0.1364068E-08
        564        81         6                   1_GWF-(2,1,999)  0.1769162E-06                   1_GWF-(1,1,570) -0.1082372E-09
        565        81         7                   1_GWF-(2,1,999)  0.6428995E-09                   1_GWF-(1,1,570) -0.1131650E-09
        566        82         1                   1_GWF-(2,1,999)  0.3966589E-03                   1_GWF-(2,1,571)  0.1626843E-05
        567        82         2                   1_GWF-(2,1,999)  0.4727019E-04                   1_GWF-(1,1,554)  0.7801569E-07
        568        82         3                   1_GWF-(2,1,999)  0.7712361E-05                   1_GWF-(1,1,572)  0.1333734E-07
[...]
          551         552         553         554         555         556         557         558         559         560
          561         562         563         564         565         566         567         568         569         570
          571         572         573         574         575         576         577         578         579         580
          581         582         583         584         585         586         587         588         589         590
          591         592         593         594         595         596         597         598         599         600
          601         602         603         604         605         606         607         608         609         610
          611         612         613         614         615         616         617         618         619         620
          621         622         623         624         625         626         627         628         629         630
          631         632         633         634         635         636         637         638         639         640
          641         642         643         644         645         646         647         648         649         650
          651         652         653         654         655         656         657         658         659         660
          661         662         663         664         665         666         667         668         669         670
          671         672         673         674         675         676         677         678         679         680
          681         682         683         684         685         686         687         688         689         690
          691         692         693         694         695         696         697         698         699         700
          701         702         703         704         705         706         707         708         709         710
          711         712         713         714         715         716         717         718         719         720
          721         722         723         724         725         726         727         728         729         730
          731         732         733         734         735         736         737         738         739         740
          741         742         743         744         745         746         747         748         749         750
          751         752         753         754         755         756         757         758         759         760
          761         762         763         764         765         766         767         768         769         770
          771         772         773         774         775         776         777         778         779         780
          781         782         783         784         785         786         787         788         789         790
          791         792         793         794         795         796         797         798         799         800
          801         802         803         804         805         806         807         808         809         810
          811         812         813         814         815         816         817         818         819         820
          821         822         823         824         825         826         827         828         829         830
          831         832         833         834         835         836         837         838         839         840
          841         842         843         844         845         846         847         848         849         850
          851         852         853         854         855         856         857         858         859         860
          861         862         863         864         865         866         867         868         869         870
          871         872         873         874         875         876         877         878         879         880
          881         882         883         884         885         886         887         888         889         890
          891         892         893         894         895         896         897         898         899         900
          901         902         903         904         905         906         907         908         909         910
          911         912         913         914         915         916         917         918         919         920
          921         922         923         924         925         926         927         928         929         930
          931         932         933         934         935         936         937         938         939         940
          941         942         943         944         945         946         947         948         949         950
          951         952         953         954         955         956         957         958         959         960
          961         962         963         964         965         966         967         968         969         970
          971         972         973         974         975         976         977         978         979         980
          981         982         983         984         985         986         987         988         989         990
          991         992         993         994         995         996         997         998         999        1000
 ........................................................................................................................
   1    206.9       206.9       206.9       206.9       206.9       206.8       206.8       206.7       206.6       206.6    
        206.5       206.4       206.3       206.2       206.2       206.0       205.9       205.8       205.7       205.6    
        205.4       205.3       205.2       205.0       204.9       204.7       204.5       204.4       204.2       204.0    
        203.8       203.6       203.4       203.2       203.0       202.8       202.6       202.4       202.2       202.0    
        201.8       201.7       201.5       201.3       201.1       200.9       200.7       200.5       200.3       200.1    
        199.9       199.7       199.5       199.3       199.1       198.9       198.7       198.5       198.3       198.1    
        197.9       197.7       197.5       197.3       197.1       196.9       196.7       196.5       196.3       196.1    
        195.9       195.7       195.6       195.4       195.2       195.0       194.8       194.6       194.4       194.2    
        194.0       193.8       193.6       193.4       193.2       193.0       192.8       192.6       192.4       192.2    
        192.0       191.8       191.6       191.4       191.2       191.0       190.8       190.6       190.4       190.2    
        190.0       189.8       189.6       189.5       189.3       189.1       188.9       188.7       188.5       188.3    
        188.1       187.9       187.7       187.5       187.3       187.1       186.9       186.7       186.5       186.3    
        186.1       185.9       185.7       185.5       185.3       185.1       184.9       184.7       184.5       184.3    
        184.1       183.9       183.7       183.5       183.4       183.2       183.0       182.8       182.6       182.4    
        182.2       182.0       181.8       181.6       181.4       181.2       181.0       180.8       180.6       180.4    
        180.2       180.0       179.8       179.6       179.4       179.2       179.0       178.8       178.6       178.4    
        178.2       178.0       177.8       177.6       177.4       177.3       177.1       176.9       176.7       176.5    
        176.3       176.1       175.9       175.7       175.5       175.3       175.1       174.9       174.7       174.5    
        174.3       174.1       173.9       173.7       173.5       173.3       173.1       172.9       172.7       172.5    
        172.3       172.1       171.9       171.7       171.5       171.3       171.2       171.0       170.8       170.6    
        170.4       170.2       170.0       169.8       169.6       169.4       169.2       169.0       168.8       168.6    
        168.4       168.2       168.0       167.8       167.6       167.4       167.2       167.0       166.8       166.6    
        166.4       166.2       166.0       165.8       165.6       165.4       165.2       165.1       164.9       164.7    
        164.5       164.3       164.1       163.9       163.7       163.5       163.3       163.1       162.9       162.7    
        162.5       162.3       162.1       161.9       161.7       161.5       161.3       161.1       160.9       160.7    
        160.5       160.3       160.1       159.9       159.7       159.5       159.3       159.1       159.0       158.8    
        158.6       158.4       158.2       158.0       157.8       157.6       157.4       157.2       157.0       156.8    
        156.6       156.4       156.2       156.0       155.8       155.6       155.4       155.2       155.0       154.8    
        154.6       154.4       154.2       154.0       153.8       153.6       153.4       153.2       153.0       152.9    
        152.7       152.5       152.3       152.1       151.9       151.7       151.5       151.3       151.1       150.9    
        150.7       150.5       150.3       150.1       149.9       149.7       149.5       149.3       149.1       148.9    
        148.7       148.5       148.3       148.1       147.9       147.7       147.5       147.3       147.1       146.9    
        146.8       146.6       146.4       146.2       146.0       145.8       145.6       145.4       145.2       145.0    
        144.8       144.6       144.4       144.2       144.0       143.8       143.6       143.4       143.2       143.0    
        142.8       142.6       142.4       142.2       142.0       141.8       141.6       141.4       141.2       141.0    
        140.8       140.7       140.5       140.3       140.1       139.9       139.7       139.5       139.3       139.1    
        138.9       138.7       138.5       138.3       138.1       137.9       137.7       137.5       137.3       137.1    
        136.9       136.7       136.5       136.3       136.1       135.9       135.7       135.5       135.3       135.1    
        134.9       134.7       134.6       134.4       134.2       134.0       133.8       133.6       133.4       133.2    
        133.0       132.8       132.6       132.4       132.2       132.0       131.8       131.6       131.4       131.2    
        131.0       130.8       130.6       130.4       130.2       130.0       129.8       129.6       129.4       129.2    
        129.0       128.8       128.6       128.5       128.3       128.1       127.9       127.7       127.5       127.3    
        127.1       126.9       126.7       126.5       126.3       126.1       125.9       125.7       125.5       125.3    
        125.1       124.9       124.7       124.5       124.3       124.1       123.9       123.7       123.5       123.3    
        123.1       122.9       122.7       122.5       122.4       122.2       122.0       121.8       121.6       121.4    
        121.2       121.0       120.8       120.6       120.4       120.2       120.0       119.8       119.6       119.4    
        119.2       119.0       118.8       118.6       118.4       118.2       118.0       117.8       117.6       117.4    
        117.2       117.0       116.8       116.6       116.4       116.3       116.1       115.9       115.7       115.5    
        115.3       115.1       114.9       114.7       114.5       114.3       114.1       113.9       113.7       113.5    
        113.3       113.1       112.9       112.7       112.5       112.3       112.1       111.9       111.7       111.5    
        111.3       111.1       110.9       110.7       110.5       110.3       110.2       110.0       109.8       109.6    
        109.4       109.2       109.0       108.8       108.6       108.4       108.2       108.0       107.8       107.6    
        107.4       107.2       107.0       106.8       106.6       106.4       106.2       106.0       105.8       105.6    
        105.4       105.2       105.0       104.8       104.6       104.4       104.2       104.0       103.9       103.7    
        103.5       103.3       103.1       102.9       102.7       102.5       102.3       102.1       101.9       101.7    
        101.5       101.3       101.1       100.9       100.7       100.5       100.3       100.1       99.92       99.72    
        99.52       99.33       99.13       98.93       98.74       98.54       98.34       98.15       97.95       97.75    
        97.56       97.36       97.16       96.97       96.77       96.57       96.38       96.18       95.98       95.79    
        95.59       95.39       95.19       95.00       94.80       94.60       94.41       94.21       94.01       93.82    
        93.62       93.42       93.23       93.03       92.83       92.64       92.44       92.24       92.05       91.85    
        91.65       91.46       91.26       91.06       90.87       90.67       90.47       90.28       90.08       89.88    
        89.69       89.49       89.29       89.09       88.90       88.70       88.50       88.31       88.11       87.91    
        87.72       87.52       87.32       87.13       86.93       86.73       86.54       86.34       86.14       85.95    
        85.75       85.55       85.36       85.16       84.96       84.77       84.57       84.37       84.18       83.98    
        83.78       83.59       83.39       83.19       82.99       82.80       82.60       82.40       82.21       82.01    
        81.81       81.62       81.42       81.22       81.03       80.83       80.63       80.44       80.24       80.04    
        79.85       79.65       79.45       79.26       79.06       78.86       78.67       78.47       78.27       78.08    
        77.88       77.68       77.49       77.29       77.09       76.89       76.70       76.50       76.30       76.11    
        75.91       75.71       75.52       75.32       75.12       74.93       74.73       74.53       74.34       74.14    
        73.94       73.75       73.55       73.35       73.16       72.96       72.76       72.57       72.37       72.17    
        71.98       71.78       71.58       71.38       71.19       70.99       70.79       70.60       70.40       70.20    
        70.01       69.81       69.61       69.42       69.22       69.02       68.83       68.63       68.43       68.24    
        68.04       67.84       67.65       67.45       67.25       67.06       66.86       66.66       66.47       66.27    
        66.07       65.88       65.68       65.48       65.28       65.09       64.89       64.69       64.50       64.30    
        64.10       63.91       63.71       63.51       63.32       63.12       62.92       62.73       62.53       62.33    
        62.14       61.94       61.74       61.55       61.35       61.15       60.96       60.76       60.56       60.37    
        60.17       59.97       59.78       59.58       59.38       59.18       58.99       58.79       58.59       58.40    
        58.20       58.00       57.81       57.61       57.41       57.22       57.02       56.82       56.63       56.43    
        56.23       56.04       55.84       55.64       55.45       55.25       55.05       54.86       54.66       54.46    
        54.27       54.07       53.87       53.68       53.48       53.28       53.08       52.89       52.69       52.49    
        52.30       52.10       51.90       51.71       51.51       51.31       51.12       50.92       50.72       50.53    
        50.33       50.13       49.94       49.74       49.54       49.35       49.15       48.95       48.76       48.56    
        48.36       48.17       47.97       47.77       47.57       47.38       47.18       46.98       46.79       46.59    
        46.39       46.20       46.00       45.80       45.61       45.41       45.21       45.02       44.82       44.62    
        44.43       44.23       44.03       43.84       43.64       43.44       43.25       43.05       42.85       42.66    
        42.46       42.26       42.07       41.87       41.67       41.48       41.28       41.08       40.89       40.69    
        40.49       40.29       40.10       39.90       39.70       39.51       39.31       39.11       38.92       38.72    
        38.52       38.33       38.13       37.93       37.74       37.54       37.34       37.15       36.95       36.75    
        36.56       36.36       36.16       35.97       35.77       35.57       35.38       35.18       34.98       34.79    
        34.59       34.39       34.20       34.00       33.81       33.61       33.41       33.22       33.02       32.82    
        32.63       32.43       32.23       32.04       31.84       31.65       31.45       31.25       31.06       30.86    
        30.67       30.47       30.27       30.08       29.88       29.69       29.49       29.30       29.10       28.91    
        28.71       28.52       28.32       28.13       27.93       27.74       27.54       27.35       27.15       26.96    
        26.76       26.57       26.38       26.18       25.99       25.80       25.61       25.41       25.22       25.03    
        24.84       24.65       24.46       24.27       24.08       23.89       23.70       23.51       23.32       23.13    
        22.94       22.76       22.57       22.39       22.20       22.02       21.83       21.65       21.47       21.28    
        21.10       20.92       20.74       20.57       20.39       20.21       20.04       19.86       19.69       19.52    
        19.35       19.18       19.01       18.84       18.68       18.51       18.35       18.19       18.03       17.87    
        17.71       17.55       17.40       17.25       17.09       16.94       16.80       16.65       16.51       16.36    
        16.22       16.08       15.94       15.80       15.67       15.53       15.40       15.27       15.13       15.00    

 HEAD WILL BE SAVED ON UNIT 1014 AT END OF TIME STEP    1, STRESS PERIOD    1


  VOLUME BUDGET FOR ENTIRE MODEL AT END OF TIME STEP    1, STRESS PERIOD   1
  ---------------------------------------------------------------------------------------------------

     CUMULATIVE VOLUME      L**3       RATES FOR THIS TIME STEP      L**3/T          PACKAGE NAME    
     ------------------                 ------------------------                     ----------------

           IN:                                      IN:
           ---                                      ---
                 RCH =       6.3356E-05                   RCH =       6.3356E-05     RCH             
                 CHD =           0.0000                   CHD =           0.0000     CHD             

            TOTAL IN =       6.3356E-05              TOTAL IN =       6.3356E-05

          OUT:                                     OUT:
          ----                                     ----
                 RCH =           0.0000                   RCH =           0.0000     RCH             
                 CHD =       6.3368E-05                   CHD =       6.3368E-05     CHD             

           TOTAL OUT =       6.3368E-05             TOTAL OUT =       6.3368E-05

            IN - OUT =      -1.1378E-08              IN - OUT =      -1.1378E-08

 PERCENT DISCREPANCY =          -0.02     PERCENT DISCREPANCY =          -0.02




         TIME SUMMARY AT END OF TIME STEP    1 IN STRESS PERIOD    1
                          TIME STEP LENGTH =    1.00000    
                        STRESS PERIOD TIME =    1.00000    
                     TOTAL SIMULATION TIME =    1.00000    
