                                   MODFLOW 6
                U.S. GEOLOGICAL SURVEY MODULAR HYDROLOGIC MODEL
                            VERSION 6.1.0 12/12/2019

   MODFLOW 6 compiled Dec 12 2019 13:30:12 with IFORT compiler (ver. 19.0.5)

This software has been approved for release by the U.S. Geological 
Survey (USGS). Although the software has been subjected to rigorous 
review, the USGS reserves the right to update the software as needed 
pursuant to further analysis and review. No warranty, expressed or 
implied, is made by the USGS or the U.S. Government as to the 
functionality of the software and related material nor shall the 
fact of release constitute any such warranty. Furthermore, the 
software is released on condition that neither the USGS nor the U.S. 
Government shall be held liable for any damages resulting from its 
authorized or unauthorized use. Also refer to the USGS Water 
Resources Software User Rights Notice for complete use, copyright, 
and distribution information.


System command used to initiate simulation:
../../src/mf6

MODFLOW was compiled using uniform precision.
Real Variables
  PRECISION: 15
  KIND: 8
  TINY (smallest non-zero value):    2.225074-308
  HUGE (largest value):    1.797693+308
Integer Variables
  KIND: 4
  HUGE (largest value): 2147483647
  BIT_SIZE: 32
 

 OPENED mfsim.nam
 FILE TYPE:NAM   UNIT 1001   STATUS:OLD                 
 FORMAT:FORMATTED              ACCESS:SEQUENTIAL          
 ACTION:READ                


 READING SIMULATION OPTIONS
 END OF SIMULATION OPTIONS

 READING SIMULATION TIMING

 OPENED benchmark_mf6.tdis
 FILE TYPE:TDIS   UNIT 1002   STATUS:OLD                 
 FORMAT:FORMATTED              ACCESS:SEQUENTIAL          
 ACTION:READ                


 TDIS -- TEMPORAL DISCRETIZATION PACKAGE,
 VERSION 1 : 11/13/2014 - INPUT READ FROM UNIT 1002
 PROCESSING TDIS OPTIONS
 END OF TDIS OPTIONS
    SIMULATION TIME UNIT IS UNDEFINED
 PROCESSING TDIS DIMENSIONS
    1 STRESS PERIOD(S) IN SIMULATION
 END OF TDIS DIMENSIONS
 PROCESSING TDIS PERIODDATA


 STRESS PERIOD     LENGTH       TIME STEPS     MULTIPLIER FOR DELT
 ----------------------------------------------------------------------------
        1         1.000000          1                    1.000
 END OF TDIS PERIODDATA
 END OF SIMULATION TIMING

 READING SIMULATION MODELS
    GWF6 model BENCHMARK_MF6 will be created as model 1
 END OF SIMULATION MODELS

 READING SIMULATION EXCHANGES
 END OF SIMULATION EXCHANGES

 READING SOLUTIONGROUP

 Creating solution: SLN_1           

 OPENED benchmark_mf6.ims
 FILE TYPE:IMS   UNIT 1011   STATUS:OLD                 
 FORMAT:FORMATTED              ACCESS:SEQUENTIAL          
 ACTION:READ                

 END OF SIMULATION SOLUTIONGROUP

 IMS -- ITERATIVE MODEL SOLUTION PACKAGE, VERSION 6, 4/28/2017
         INPUT READ FROM UNIT 1011

 PROCESSING IMS OPTIONS
 COMPLEX OPTION:
 DEFAULT SOLVER INPUT VALUES REFLECT STRONGLY NONLINEAR MODEL

 OPENED benchmark_mf6.csv
 FILE TYPE:CSV_OUTPUT   UNIT 1015   STATUS:REPLACE             
 FORMAT:FORMATTED              ACCESS:SEQUENTIAL          
 ACTION:READWRITE           

    CSV OUTPUT WILL BE SAVED TO FILE: benchmark_mf6.csv
    OPENED ON UNIT:    1015
 END OF IMS OPTIONS

 PROCESSING IMS NONLINEAR
 END OF IMS NONLINEAR DATA
 **UNDER-RELAXATION WILL BE USED***
 
 ***IMS LINEAR SOLVER WILL BE USED***

 IMSLINEAR -- UNSTRUCTURED LINEAR SOLUTION PACKAGE, VERSION 8, 04/28/2017

 PROCESSING LINEAR DATA
 END OF LINEAR DATA
 
 OUTER ITERATION CONVERGENCE CRITERION     (HCLOSE) =    0.100000E-06
 OUTER ITERATION BOUNDARY FLOW RESIDUAL (RCLOSEBND) =    0.100000E-06
 MAXIMUM NUMBER OF OUTER ITERATIONS        (MXITER) =     10000
 SOLVER PRINTOUT INDEX                     (IPRIMS) =         2
 NONLINEAR ITERATION METHOD            (NONLINMETH) =         1
 LINEAR SOLUTION METHOD                   (LINMETH) =         1
 UNDER-RELAXATION WEIGHT REDUCTION FACTOR   (THETA) =    0.800000E+00
 UNDER-RELAXATION WEIGHT INCREASE INCREMENT (KAPPA) =    0.100000E-03
 UNDER-RELAXATION PREVIOUS HISTORY FACTOR   (GAMMA) =    0.100000E+01
 UNDER-RELAXATIONMOMENTUM TERM          (AMOMENTUM) =    0.000000E+00
    MAXIMUM NUMBER OF BACKTRACKS         (NUMTRACK) =         0

       SOLUTION BY THE BICONJUGATE-GRADIENT STABILIZED METHOD
 ------------------------------------------------------------------
 MAXIMUM OF  10000 CALLS OF SOLUTION ROUTINE
 MAXIMUM OF   1000 INTERNAL ITERATIONS PER CALL TO SOLUTION ROUTINE
 LINEAR ACCELERATION METHOD            = BCGS      
 MATRIX PRECONDITIONING TYPE           = MOD. INCOMPLETE LUT 
 MATRIX SCALING APPROACH               = NO SCALING          
 MATRIX REORDERING APPROACH            = ORIGINAL ORDERING        
 NUMBER OF ORTHOGONALIZATIONS          =        2
 HEAD CHANGE CRITERION FOR CLOSURE     =    0.10000E-03
 RESIDUAL CHANGE CRITERION FOR CLOSURE =    0.10000E-04
 RESIDUAL CONVERGENCE OPTION           =        0
 RESIDUAL CONVERGENCE NORM             = INFINITY NORM   
 RELAXATION FACTOR                     =    0.97000E+00
 NUMBER OF LEVELS                      =              5
 DROP TOLERANCE                        =    0.10000E-03


1
                            STRESS PERIOD NO.    1, LENGTH =   1.000000    
                            -----------------------------------------------

                              NUMBER OF TIME STEPS =     1

                               MULTIPLIER FOR DELT =     1.000

                            INITIAL TIME STEP SIZE =   1.000000    



 PSEUDO-TRANSIENT CONTINUATION WILL BE APPLIED TO MODEL 1 ("BENCHMARK_MF6") DURING THIS TIME STEP


 OUTER ITERATION SUMMARY
 ---------------------------------------------------------------------------------------
                       OUTER     INNER         MAXIMUM                    MAXIMUM CHANGE
                   ITERATION ITERATION          CHANGE                    MODEL-(CELLID)
 ---------------------------------------------------------------------------------------
 Linear Solver             1         6    -9.57732                       1_GWF-(1,1,999)
 Under-relaxation          1              -9.57732                       1_GWF-(1,1,999)
 Linear Solver             2        55    -46.0779                         1_GWF-(2,1,1)
 Under-relaxation          2              -24.9494                       1_GWF-(2,1,162)
 Linear Solver             3        37    -28.1618                       1_GWF-(1,1,513)
 Under-relaxation          3              -21.1592                       1_GWF-(2,1,579)
 Linear Solver             4        15     15.4317                       1_GWF-(1,1,278)
 Under-relaxation          4               15.4317                       1_GWF-(1,1,278)
 Linear Solver             5         5    -11.4203                       1_GWF-(1,1,278)
 Under-relaxation          5              -11.4203                       1_GWF-(1,1,278)
 Linear Solver             6        16     18.7474                       1_GWF-(1,1,439)
 Under-relaxation          6               18.7474                       1_GWF-(1,1,439)
 Linear Solver             7         5     16.9296                       1_GWF-(1,1,451)
 Under-relaxation          7               16.9296                       1_GWF-(1,1,451)
 Linear Solver             8         5     15.0151                       1_GWF-(1,1,453)
 Under-relaxation          8               15.0151                       1_GWF-(1,1,453)
 Linear Solver             9         5     25.3889                       1_GWF-(1,1,455)
 Under-relaxation          9               25.3889                       1_GWF-(1,1,455)
 Linear Solver            10         4     20.8829                       1_GWF-(1,1,457)
 Under-relaxation         10               20.8829                       1_GWF-(1,1,457)
 Linear Solver            11         4    -14.2298                       1_GWF-(1,1,457)
 Under-relaxation         11              -14.2298                       1_GWF-(1,1,457)
 Linear Solver            12         8     8.12307                       1_GWF-(1,1,459)
 Under-relaxation         12               8.12307                       1_GWF-(1,1,459)
 Linear Solver            13        10     23.3516                       1_GWF-(1,1,462)
 Under-relaxation         13               23.3516                       1_GWF-(1,1,462)
 Linear Solver            14         5     24.1587                       1_GWF-(1,1,466)
 Under-relaxation         14               24.1587                       1_GWF-(1,1,466)
 Linear Solver            15         5    -16.4251                       1_GWF-(1,1,466)
 Under-relaxation         15              -16.4251                       1_GWF-(1,1,466)
 Linear Solver            16         7     8.29466                       1_GWF-(1,1,468)
 Under-relaxation         16               8.29466                       1_GWF-(1,1,468)
 Linear Solver            17         6     16.5794                       1_GWF-(1,1,470)
 Under-relaxation         17               16.5794                       1_GWF-(1,1,470)
 Linear Solver            18         5     17.8145                       1_GWF-(1,1,473)
 Under-relaxation         18               17.8145                       1_GWF-(1,1,473)
 Linear Solver            19         5     36.3312                       1_GWF-(1,1,475)
 Under-relaxation         19               36.3312                       1_GWF-(1,1,475)
 Linear Solver            20         4    -27.0127                       1_GWF-(1,1,475)
 Under-relaxation         20              -27.0127                       1_GWF-(1,1,475)
 Linear Solver            21         7     8.02466                       1_GWF-(1,1,477)
 Under-relaxation         21               8.02466                       1_GWF-(1,1,477)
 Linear Solver            22         7     22.7535                       1_GWF-(1,1,479)
 Under-relaxation         22               22.7535                       1_GWF-(1,1,479)
 Linear Solver            23         5     25.0942                       1_GWF-(1,1,483)
 Under-relaxation         23               25.0942                       1_GWF-(1,1,483)
 Linear Solver            24         4    -16.3895                       1_GWF-(1,1,483)
 Under-relaxation         24              -16.3895                       1_GWF-(1,1,483)
 Linear Solver            25         7     8.98417                       1_GWF-(1,1,485)
 Under-relaxation         25               8.98417                       1_GWF-(1,1,485)
 Linear Solver            26         7     18.5812                       1_GWF-(1,1,487)
 Under-relaxation         26               18.5812                       1_GWF-(1,1,487)
 Linear Solver            27         5     22.7867                       1_GWF-(1,1,490)
 Under-relaxation         27               22.7867                       1_GWF-(1,1,490)
 Linear Solver            28         4    -13.8050                       1_GWF-(1,1,490)
 Under-relaxation         28              -13.8050                       1_GWF-(1,1,490)
 Linear Solver            29         7     9.22521                       1_GWF-(1,1,492)
 Under-relaxation         29               9.22521                       1_GWF-(1,1,492)
 Linear Solver            30        10     19.9900                       1_GWF-(1,1,494)
 Under-relaxation         30               19.9900                       1_GWF-(1,1,494)
 Linear Solver            31         5     30.0740                       1_GWF-(1,1,497)
 Under-relaxation         31               30.0740                       1_GWF-(1,1,497)
 Linear Solver            32         4    -20.4989                       1_GWF-(1,1,497)
 Under-relaxation         32              -20.4989                       1_GWF-(1,1,497)
 Linear Solver            33         6     9.52766                       1_GWF-(1,1,499)
 Under-relaxation         33               9.52766                       1_GWF-(1,1,499)
 Linear Solver            34         6     37.7028                       1_GWF-(1,1,501)
 Under-relaxation         34               37.7028                       1_GWF-(1,1,501)
 Linear Solver            35         4    -29.9679                       1_GWF-(1,1,501)
 Under-relaxation         35              -29.9679                       1_GWF-(1,1,501)
 Linear Solver            36         4    -12.7459                       1_GWF-(1,1,504)
 Under-relaxation         36              -12.7459                       1_GWF-(1,1,504)
 Linear Solver            37         8     10.1367                       1_GWF-(1,1,506)
 Under-relaxation         37               10.1367                       1_GWF-(1,1,506)
 Linear Solver            38         7     9.70796                       1_GWF-(1,1,507)
 Under-relaxation         38               9.70796                       1_GWF-(1,1,507)
 Linear Solver            39         6     18.4563                       1_GWF-(1,1,509)
 Under-relaxation         39               18.4563                       1_GWF-(1,1,509)
 Linear Solver            40         5     17.0881                       1_GWF-(1,1,511)
 Under-relaxation         40               17.0881                       1_GWF-(1,1,511)
 Linear Solver            41         5     9.49421                       1_GWF-(1,1,512)
 Under-relaxation         41               9.49421                       1_GWF-(1,1,512)
 Linear Solver            42         7     10.1708                       1_GWF-(1,1,513)
 Under-relaxation         42               10.1708                       1_GWF-(1,1,513)
 Linear Solver            43         7     25.3733                       1_GWF-(1,1,515)
 Under-relaxation         43               25.3733                       1_GWF-(1,1,515)
 Linear Solver            44         4     17.2763                       1_GWF-(1,1,517)
 Under-relaxation         44               17.2763                       1_GWF-(1,1,517)
 Linear Solver            45         5     9.86953                       1_GWF-(1,1,518)
 Under-relaxation         45               9.86953                       1_GWF-(1,1,518)
 Linear Solver            46         8     10.4844                       1_GWF-(1,1,519)
 Under-relaxation         46               10.4844                       1_GWF-(1,1,519)
 Linear Solver            47         6     38.2655                       1_GWF-(1,1,521)
 Under-relaxation         47               38.2655                       1_GWF-(1,1,521)
 Linear Solver            48         4    -28.5411                       1_GWF-(1,1,521)
 Under-relaxation         48              -28.5411                       1_GWF-(1,1,521)
 Linear Solver            49         5     10.0625                       1_GWF-(1,1,524)
 Under-relaxation         49               10.0625                       1_GWF-(1,1,524)
 Linear Solver            50         8     10.4809                       1_GWF-(1,1,525)
 Under-relaxation         50               10.4809                       1_GWF-(1,1,525)
 Linear Solver            51         6     47.1073                       1_GWF-(1,1,527)
 Under-relaxation         51               47.1073                       1_GWF-(1,1,527)
 Linear Solver            52         4    -39.6828                       1_GWF-(1,1,527)
 Under-relaxation         52              -39.6828                       1_GWF-(1,1,527)
 Linear Solver            53         4    -22.7542                       1_GWF-(1,1,530)
 Under-relaxation         53              -22.7542                       1_GWF-(1,1,530)
 Linear Solver            54         5     10.6120                       1_GWF-(1,1,532)
 Under-relaxation         54               10.6120                       1_GWF-(1,1,532)
 Linear Solver            55         7     10.7800                       1_GWF-(1,1,533)
 Under-relaxation         55               10.7800                       1_GWF-(1,1,533)
 Linear Solver            56         6     29.2144                       1_GWF-(1,1,535)
 Under-relaxation         56               29.2144                       1_GWF-(1,1,535)
 Linear Solver            57         4    -20.4342                       1_GWF-(1,1,535)
 Under-relaxation         57              -20.4342                       1_GWF-(1,1,535)
 Linear Solver            58         5     9.98118                       1_GWF-(1,1,538)
 Under-relaxation         58               9.98118                       1_GWF-(1,1,538)
 Linear Solver            59         8     10.5600                       1_GWF-(1,1,539)
 Under-relaxation         59               10.5600                       1_GWF-(1,1,539)
 Linear Solver            60         6     61.6068                       1_GWF-(1,1,541)
 Under-relaxation         60               61.6068                       1_GWF-(1,1,541)
 Linear Solver            61         4    -51.9142                       1_GWF-(1,1,541)
 Under-relaxation         61              -51.9142                       1_GWF-(1,1,541)
 Linear Solver            62         4    -16.3130                       1_GWF-(1,1,544)
 Under-relaxation         62              -16.3130                       1_GWF-(1,1,544)
 Linear Solver            63         6     10.4591                       1_GWF-(1,1,546)
 Under-relaxation         63               10.4591                       1_GWF-(1,1,546)
 Linear Solver            64         7     10.5276                       1_GWF-(1,1,547)
 Under-relaxation         64               10.5276                       1_GWF-(1,1,547)
 Linear Solver            65         6     25.0275                       1_GWF-(1,1,549)
 Under-relaxation         65               25.0275                       1_GWF-(1,1,549)
 Linear Solver            66         5     18.0544                       1_GWF-(1,1,551)
 Under-relaxation         66               18.0544                       1_GWF-(1,1,551)
 Linear Solver            67         5     9.82192                       1_GWF-(1,1,552)
 Under-relaxation         67               9.82192                       1_GWF-(1,1,552)
 Linear Solver            68         8     10.4159                       1_GWF-(1,1,553)
 Under-relaxation         68               10.4159                       1_GWF-(1,1,553)
 Linear Solver            69         6     37.6669                       1_GWF-(1,1,555)
 Under-relaxation         69               37.6669                       1_GWF-(1,1,555)
 Linear Solver            70         4     39.6255                       1_GWF-(1,1,558)
 Under-relaxation         70               39.6255                       1_GWF-(1,1,558)
 Linear Solver            71         4    -29.0008                       1_GWF-(1,1,558)
 Under-relaxation         71              -29.0008                       1_GWF-(1,1,558)
 Linear Solver            72         6     9.87801                       1_GWF-(1,1,560)
 Under-relaxation         72               9.87801                       1_GWF-(1,1,560)
 Linear Solver            73         7     11.3904                       1_GWF-(1,1,561)
 Under-relaxation         73               11.3904                       1_GWF-(1,1,561)
 Linear Solver            74         6     20.0961                       1_GWF-(1,1,563)
 Under-relaxation         74               20.0961                       1_GWF-(1,1,563)
 Linear Solver            75         5     19.0514                       1_GWF-(1,1,565)
 Under-relaxation         75               19.0514                       1_GWF-(1,1,565)
 Linear Solver            76         5    -9.69786                       1_GWF-(1,1,565)
 Under-relaxation         76              -9.69786                       1_GWF-(1,1,565)
 Linear Solver            77         9     10.2471                       1_GWF-(1,1,567)
 Under-relaxation         77               10.2471                       1_GWF-(1,1,567)
 Linear Solver            78         8     26.7576                       1_GWF-(1,1,569)
 Under-relaxation         78               26.7576                       1_GWF-(1,1,569)
 Linear Solver            79         4    -17.9043                       1_GWF-(1,1,569)
 Under-relaxation         79              -17.9043                       1_GWF-(1,1,569)
 Linear Solver            80         5     9.69230                       1_GWF-(1,1,572)
 Under-relaxation         80               9.69230                       1_GWF-(1,1,572)
 Linear Solver            81         7     10.2319                       1_GWF-(1,1,573)
 Under-relaxation         81               10.2319                       1_GWF-(1,1,573)
 Linear Solver            82         8     23.5581                       1_GWF-(1,1,575)
 Under-relaxation         82               23.5581                       1_GWF-(1,1,575)
 Linear Solver            83         5     16.3721                       1_GWF-(1,1,577)
 Under-relaxation         83               16.3721                       1_GWF-(1,1,577)
 Linear Solver            84         5     9.66324                       1_GWF-(1,1,578)
 Under-relaxation         84               9.66324                       1_GWF-(1,1,578)
 Linear Solver            85         7     10.2145                       1_GWF-(1,1,579)
 Under-relaxation         85               10.2145                       1_GWF-(1,1,579)
 Linear Solver            86         6     22.2512                       1_GWF-(1,1,581)
 Under-relaxation         86               22.2512                       1_GWF-(1,1,581)
 Linear Solver            87         5     16.4294                       1_GWF-(1,1,583)
 Under-relaxation         87               16.4294                       1_GWF-(1,1,583)
 Linear Solver            88         5     9.64773                       1_GWF-(1,1,584)
 Under-relaxation         88               9.64773                       1_GWF-(1,1,584)
 Linear Solver            89         7     10.1954                       1_GWF-(1,1,585)
 Under-relaxation         89               10.1954                       1_GWF-(1,1,585)
 Linear Solver            90         6     21.1249                       1_GWF-(1,1,587)
 Under-relaxation         90               21.1249                       1_GWF-(1,1,587)
 Linear Solver            91         5     16.4005                       1_GWF-(1,1,589)
 Under-relaxation         91               16.4005                       1_GWF-(1,1,589)
 Linear Solver            92         5     9.61710                       1_GWF-(1,1,590)
 Under-relaxation         92               9.61710                       1_GWF-(1,1,590)
 Linear Solver            93         7     10.1725                       1_GWF-(1,1,591)
 Under-relaxation         93               10.1725                       1_GWF-(1,1,591)
 Linear Solver            94         6     19.9100                       1_GWF-(1,1,593)
 Under-relaxation         94               19.9100                       1_GWF-(1,1,593)
 Linear Solver            95         5     55.7152                       1_GWF-(1,1,596)
 Under-relaxation         95               55.7152                       1_GWF-(1,1,596)
 Linear Solver            96         4    -43.1723                       1_GWF-(1,1,596)
 Under-relaxation         96              -43.1723                       1_GWF-(1,1,596)
 Linear Solver            97         6     10.3504                       1_GWF-(1,1,598)
 Under-relaxation         97               10.3504                       1_GWF-(1,1,598)
 Linear Solver            98         8     9.72880                       1_GWF-(1,1,599)
 Under-relaxation         98               9.72880                       1_GWF-(1,1,599)
 Linear Solver            99         9     18.2079                       1_GWF-(1,1,601)
 Under-relaxation         99               18.2079                       1_GWF-(1,1,601)
 Linear Solver           100         5     34.0912                       1_GWF-(1,1,604)
 Under-relaxation        100               34.0912                       1_GWF-(1,1,604)
 Linear Solver           101         4     45.4104                       1_GWF-(1,1,606)
 Under-relaxation        101               45.4104                       1_GWF-(1,1,606)
 Linear Solver           102         3    -34.2344                       1_GWF-(1,1,606)
 Under-relaxation        102              -34.2344                       1_GWF-(1,1,606)
 Linear Solver           103         6     10.3548                       1_GWF-(1,1,608)
 Under-relaxation        103               10.3548                       1_GWF-(1,1,608)
 Linear Solver           104         7     9.73997                       1_GWF-(1,1,609)
 Under-relaxation        104               9.73997                       1_GWF-(1,1,609)
 Linear Solver           105         6     46.3748                       1_GWF-(1,1,612)
 Under-relaxation        105               46.3748                       1_GWF-(1,1,612)
 Linear Solver           106         4    -39.0319                       1_GWF-(1,1,612)
 Under-relaxation        106              -39.0319                       1_GWF-(1,1,612)
 Linear Solver           107         4    -14.9841                       1_GWF-(1,1,616)
 Under-relaxation        107              -14.9841                       1_GWF-(1,1,616)
 Linear Solver           108         7     9.91136                       1_GWF-(1,1,618)
 Under-relaxation        108               9.91136                       1_GWF-(1,1,618)
 Linear Solver           109         6     41.1955                       1_GWF-(1,1,621)
 Under-relaxation        109               41.1955                       1_GWF-(1,1,621)
 Linear Solver           110         4    -34.6019                       1_GWF-(1,1,621)
 Under-relaxation        110              -34.6019                       1_GWF-(1,1,621)
 Linear Solver           111         4    -16.9902                       1_GWF-(1,1,626)
 Under-relaxation        111              -16.9902                       1_GWF-(1,1,626)
 Linear Solver           112         7     9.78436                       1_GWF-(1,1,628)
 Under-relaxation        112               9.78436                       1_GWF-(1,1,628)
 Linear Solver           113         6     30.8577                       1_GWF-(1,1,632)
 Under-relaxation        113               30.8577                       1_GWF-(1,1,632)
 Linear Solver           114         4    -25.2054                       1_GWF-(1,1,632)
 Under-relaxation        114              -25.2054                       1_GWF-(1,1,632)
 Linear Solver           115         5     15.8593                       1_GWF-(1,1,641)
 Under-relaxation        115               15.8593                       1_GWF-(1,1,641)
 Linear Solver           116         5     19.3226                       1_GWF-(1,1,646)
 Under-relaxation        116               19.3226                       1_GWF-(1,1,646)
 Linear Solver           117         5    -13.9163                       1_GWF-(1,1,646)
 Under-relaxation        117              -13.9163                       1_GWF-(1,1,646)
 Linear Solver           118        25     3.08814                       1_GWF-(1,1,668)
 Under-relaxation        118               3.08814                       1_GWF-(1,1,668)
 Linear Solver           119        37    -1.54691                       1_GWF-(2,1,619)
 Under-relaxation        119              -1.54691                       1_GWF-(2,1,619)
 Linear Solver           120        55     1.32421                         1_GWF-(1,1,1)
 Under-relaxation        120               1.32421                         1_GWF-(1,1,1)
 Linear Solver           121        66    0.668486                         1_GWF-(1,1,1)
 Under-relaxation        121              0.668486                         1_GWF-(1,1,1)
 Linear Solver           122        77    0.235064                        1_GWF-(1,1,32)
 Under-relaxation        122              0.235064                        1_GWF-(1,1,32)
 Linear Solver           123        27   -0.177890                        1_GWF-(1,1,32)
 Under-relaxation        123             -0.177890                        1_GWF-(1,1,32)
 Linear Solver           124        14    0.178546                        1_GWF-(1,1,31)
 Under-relaxation        124              0.178546                        1_GWF-(1,1,31)
 Linear Solver           125         4   -2.807432E-02                    1_GWF-(1,1,31)
 Under-relaxation        125             -2.807432E-02                    1_GWF-(1,1,31)
 Linear Solver           126        17   -6.583352E-03                    1_GWF-(1,1,29)
 Under-relaxation        126             -6.583352E-03                    1_GWF-(1,1,29)
 Linear Solver           127        12   -7.031599E-03                   1_GWF-(2,1,364)
 Under-relaxation        127             -7.031599E-03                   1_GWF-(2,1,364)
 Linear Solver           128        10   -6.215322E-03                   1_GWF-(2,1,432)
 Under-relaxation        128             -6.215322E-03                   1_GWF-(2,1,432)
 Linear Solver           129         9   -5.000654E-03                   1_GWF-(2,1,492)
 Under-relaxation        129             -5.000654E-03                   1_GWF-(2,1,492)
 Linear Solver           130         8   -3.959715E-03                   1_GWF-(2,1,547)
 Under-relaxation        130             -3.959715E-03                   1_GWF-(2,1,547)
 Linear Solver           131         7   -3.126148E-03                   1_GWF-(1,1,228)
 Under-relaxation        131             -3.126148E-03                   1_GWF-(1,1,228)
 Linear Solver           132         7   -2.578916E-03                   1_GWF-(2,1,270)
 Under-relaxation        132             -2.578916E-03                   1_GWF-(2,1,270)
 Linear Solver           133         6    2.252542E-03                   1_GWF-(2,1,251)
 Under-relaxation        133              2.252542E-03                   1_GWF-(2,1,251)
 Linear Solver           134         5    1.889596E-03                   1_GWF-(2,1,287)
 Under-relaxation        134              1.889596E-03                   1_GWF-(2,1,287)
 Linear Solver           135         5   -1.628678E-03                   1_GWF-(2,1,267)
 Under-relaxation        135             -1.628678E-03                   1_GWF-(2,1,267)
 Linear Solver           136         4   -1.285123E-03                   1_GWF-(2,1,297)
 Under-relaxation        136             -1.285123E-03                   1_GWF-(2,1,297)
 Linear Solver           137         4    1.064468E-03                   1_GWF-(2,1,275)
 Under-relaxation        137              1.064468E-03                   1_GWF-(2,1,275)
 Linear Solver           138         1   -9.401584E-05                   1_GWF-(2,1,255)
 Under-relaxation        138             -9.401584E-05                   1_GWF-(2,1,255)
 Linear Solver           139         1   -6.997203E-05                   1_GWF-(2,1,256)
 Under-relaxation        139             -6.997203E-05                   1_GWF-(2,1,256)
 Linear Solver           140         1   -5.470899E-05                   1_GWF-(2,1,257)
 Under-relaxation        140             -5.470899E-05                   1_GWF-(2,1,257)
 Linear Solver           141         1    4.446679E-05                   1_GWF-(2,1,304)
 Under-relaxation        141              4.446679E-05                   1_GWF-(2,1,304)
 Linear Solver           142         1    3.726422E-05                   1_GWF-(2,1,305)
 Under-relaxation        142              3.726422E-05                   1_GWF-(2,1,305)
 Linear Solver           143         1    3.185271E-05                   1_GWF-(2,1,306)
 Under-relaxation        143              3.185271E-05                   1_GWF-(2,1,306)
 Linear Solver           144         1    2.765724E-05                   1_GWF-(2,1,306)
 Under-relaxation        144              2.765724E-05                   1_GWF-(2,1,306)
 Linear Solver           145         1   -2.487094E-05                   1_GWF-(2,1,858)
 Under-relaxation        145             -2.487094E-05                   1_GWF-(2,1,858)
 Linear Solver           146         1   -2.308939E-05                   1_GWF-(2,1,859)
 Under-relaxation        146             -2.308939E-05                   1_GWF-(2,1,859)
 Linear Solver           147         1   -2.156934E-05                   1_GWF-(2,1,860)
 Under-relaxation        147             -2.156934E-05                   1_GWF-(2,1,860)
 Linear Solver           148         1   -2.025671E-05                   1_GWF-(2,1,861)
 Under-relaxation        148             -2.025671E-05                   1_GWF-(2,1,861)
 Linear Solver           149         1   -1.911129E-05                   1_GWF-(2,1,862)
 Under-relaxation        149             -1.911129E-05                   1_GWF-(2,1,862)
 Linear Solver           150         1   -1.810258E-05                   1_GWF-(2,1,863)
 Under-relaxation        150             -1.810258E-05                   1_GWF-(2,1,863)
 Linear Solver           151         1   -1.720786E-05                   1_GWF-(2,1,863)
 Under-relaxation        151             -1.720786E-05                   1_GWF-(2,1,863)
 Linear Solver           152         1   -1.640886E-05                   1_GWF-(2,1,864)
 Under-relaxation        152             -1.640886E-05                   1_GWF-(2,1,864)
 Linear Solver           153         1   -1.568991E-05                   1_GWF-(2,1,865)
 Under-relaxation        153             -1.568991E-05                   1_GWF-(2,1,865)
 Linear Solver           154         1   -1.503999E-05                   1_GWF-(2,1,865)
 Under-relaxation        154             -1.503999E-05                   1_GWF-(2,1,865)
 Linear Solver           155         1   -1.444983E-05                   1_GWF-(2,1,866)
 Under-relaxation        155             -1.444983E-05                   1_GWF-(2,1,866)
 Linear Solver           156         1   -1.391031E-05                   1_GWF-(2,1,867)
 Under-relaxation        156             -1.391031E-05                   1_GWF-(2,1,867)
 Linear Solver           157         1   -1.341669E-05                   1_GWF-(2,1,867)
 Under-relaxation        157             -1.341669E-05                   1_GWF-(2,1,867)
 Linear Solver           158         1   -1.296184E-05                   1_GWF-(2,1,868)
 Under-relaxation        158             -1.296184E-05                   1_GWF-(2,1,868)
 Linear Solver           159         1   -1.254221E-05                   1_GWF-(2,1,868)
 Under-relaxation        159             -1.254221E-05                   1_GWF-(2,1,868)
 Linear Solver           160         1   -1.215326E-05                   1_GWF-(2,1,869)
 Under-relaxation        160             -1.215326E-05                   1_GWF-(2,1,869)
 Linear Solver           161         1   -1.179203E-05                   1_GWF-(2,1,869)
 Under-relaxation        161             -1.179203E-05                   1_GWF-(2,1,869)
 Linear Solver           162         1   -1.145536E-05                   1_GWF-(2,1,870)
 Under-relaxation        162             -1.145536E-05                   1_GWF-(2,1,870)
 Linear Solver           163         1   -1.114105E-05                   1_GWF-(2,1,870)
 Under-relaxation        163             -1.114105E-05                   1_GWF-(2,1,870)
 Linear Solver           164         1   -1.084653E-05                   1_GWF-(2,1,871)
 Under-relaxation        164             -1.084653E-05                   1_GWF-(2,1,871)
 Linear Solver           165         1   -1.057048E-05                   1_GWF-(2,1,871)
 Under-relaxation        165             -1.057048E-05                   1_GWF-(2,1,871)
 Linear Solver           166         1   -1.031040E-05                   1_GWF-(2,1,872)
 Under-relaxation        166             -1.031040E-05                   1_GWF-(2,1,872)
 Linear Solver           167         1   -1.006600E-05                   1_GWF-(2,1,872)
 Under-relaxation        167             -1.006600E-05                   1_GWF-(2,1,872)
 Linear Solver           168         1   -9.834677E-06                   1_GWF-(2,1,872)
 Under-relaxation        168             -9.834677E-06                   1_GWF-(2,1,872)
 Linear Solver           169         1   -9.616501E-06                   1_GWF-(2,1,873)
 Under-relaxation        169             -9.616501E-06                   1_GWF-(2,1,873)
 Linear Solver           170         1   -9.409540E-06                   1_GWF-(2,1,873)
 Under-relaxation        170             -9.409540E-06                   1_GWF-(2,1,873)
 Linear Solver           171         1   -9.213211E-06                   1_GWF-(2,1,874)
 Under-relaxation        171             -9.213211E-06                   1_GWF-(2,1,874)
 Linear Solver           172         1   -9.026943E-06                   1_GWF-(2,1,874)
 Under-relaxation        172             -9.026943E-06                   1_GWF-(2,1,874)
 Linear Solver           173         1   -8.849286E-06                   1_GWF-(2,1,874)
 Under-relaxation        173             -8.849286E-06                   1_GWF-(2,1,874)
 Linear Solver           174         1   -8.680599E-06                   1_GWF-(2,1,875)
 Under-relaxation        174             -8.680599E-06                   1_GWF-(2,1,875)
 Linear Solver           175         1   -8.519442E-06                   1_GWF-(2,1,875)
 Under-relaxation        175             -8.519442E-06                   1_GWF-(2,1,875)
 Linear Solver           176         1   -8.365387E-06                   1_GWF-(2,1,876)
 Under-relaxation        176             -8.365387E-06                   1_GWF-(2,1,876)
 Linear Solver           177         1   -8.218536E-06                   1_GWF-(2,1,876)
 Under-relaxation        177             -8.218536E-06                   1_GWF-(2,1,876)
 Linear Solver           178         1   -8.077641E-06                   1_GWF-(2,1,876)
 Under-relaxation        178             -8.077641E-06                   1_GWF-(2,1,876)
 Linear Solver           179         1   -7.942719E-06                   1_GWF-(2,1,877)
 Under-relaxation        179             -7.942719E-06                   1_GWF-(2,1,877)
 Linear Solver           180         1   -7.813543E-06                   1_GWF-(2,1,877)
 Under-relaxation        180             -7.813543E-06                   1_GWF-(2,1,877)
 Linear Solver           181         1   -7.689241E-06                   1_GWF-(2,1,877)
 Under-relaxation        181             -7.689241E-06                   1_GWF-(2,1,877)
 Linear Solver           182         1   -7.569967E-06                   1_GWF-(2,1,878)
 Under-relaxation        182             -7.569967E-06                   1_GWF-(2,1,878)
 Linear Solver           183         1   -7.455394E-06                   1_GWF-(2,1,878)
 Under-relaxation        183             -7.455394E-06                   1_GWF-(2,1,878)
 Linear Solver           184         1   -7.344859E-06                   1_GWF-(2,1,878)
 Under-relaxation        184             -7.344859E-06                   1_GWF-(2,1,878)
 Linear Solver           185         1   -7.238528E-06                   1_GWF-(2,1,879)
 Under-relaxation        185             -7.238528E-06                   1_GWF-(2,1,879)
 Linear Solver           186         1   -7.136166E-06                   1_GWF-(2,1,879)
 Under-relaxation        186             -7.136166E-06                   1_GWF-(2,1,879)
 Linear Solver           187         1   -7.037185E-06                   1_GWF-(2,1,879)
 Under-relaxation        187             -7.037185E-06                   1_GWF-(2,1,879)
 Linear Solver           188         1   -6.941670E-06                   1_GWF-(2,1,880)
 Under-relaxation        188             -6.941670E-06                   1_GWF-(2,1,880)
 Linear Solver           189         1   -6.849629E-06                   1_GWF-(2,1,880)
 Under-relaxation        189             -6.849629E-06                   1_GWF-(2,1,880)
 Linear Solver           190         1   -6.760443E-06                   1_GWF-(2,1,880)
 Under-relaxation        190             -6.760443E-06                   1_GWF-(2,1,880)
 Linear Solver           191         1   -6.674050E-06                   1_GWF-(2,1,881)
 Under-relaxation        191             -6.674050E-06                   1_GWF-(2,1,881)
 Linear Solver           192         1   -6.590811E-06                   1_GWF-(2,1,881)
 Under-relaxation        192             -6.590811E-06                   1_GWF-(2,1,881)
 Linear Solver           193         1   -6.510007E-06                   1_GWF-(2,1,881)
 Under-relaxation        193             -6.510007E-06                   1_GWF-(2,1,881)
 Linear Solver           194         1   -6.431521E-06                   1_GWF-(2,1,881)
 Under-relaxation        194             -6.431521E-06                   1_GWF-(2,1,881)
 Linear Solver           195         1   -6.355702E-06                   1_GWF-(2,1,882)
 Under-relaxation        195             -6.355702E-06                   1_GWF-(2,1,882)
 Linear Solver           196         1   -6.282127E-06                   1_GWF-(2,1,882)
 Under-relaxation        196             -6.282127E-06                   1_GWF-(2,1,882)
 Linear Solver           197         1   -6.210547E-06                   1_GWF-(2,1,882)
 Under-relaxation        197             -6.210547E-06                   1_GWF-(2,1,882)
 Linear Solver           198         1   -6.141027E-06                   1_GWF-(2,1,883)
 Under-relaxation        198             -6.141027E-06                   1_GWF-(2,1,883)
 Linear Solver           199         1   -6.073733E-06                   1_GWF-(2,1,883)
 Under-relaxation        199             -6.073733E-06                   1_GWF-(2,1,883)
 Linear Solver           200         1   -6.008168E-06                   1_GWF-(2,1,883)
 Under-relaxation        200             -6.008168E-06                   1_GWF-(2,1,883)
 Linear Solver           201         1   -5.944259E-06                   1_GWF-(2,1,883)
 Under-relaxation        201             -5.944259E-06                   1_GWF-(2,1,883)
 Linear Solver           202         1   -5.882286E-06                   1_GWF-(2,1,884)
 Under-relaxation        202             -5.882286E-06                   1_GWF-(2,1,884)
 Linear Solver           203         1   -5.821994E-06                   1_GWF-(2,1,884)
 Under-relaxation        203             -5.821994E-06                   1_GWF-(2,1,884)
 Linear Solver           204         1   -5.763148E-06                   1_GWF-(2,1,884)
 Under-relaxation        204             -5.763148E-06                   1_GWF-(2,1,884)
 Linear Solver           205         1   -5.705691E-06                   1_GWF-(2,1,884)
 Under-relaxation        205             -5.705691E-06                   1_GWF-(2,1,884)
 Linear Solver           206         1   -5.650028E-06                   1_GWF-(2,1,885)
 Under-relaxation        206             -5.650028E-06                   1_GWF-(2,1,885)
 Linear Solver           207         1   -5.595654E-06                   1_GWF-(2,1,885)
 Under-relaxation        207             -5.595654E-06                   1_GWF-(2,1,885)
 Linear Solver           208         1   -5.542502E-06                   1_GWF-(2,1,885)
 Under-relaxation        208             -5.542502E-06                   1_GWF-(2,1,885)
 Linear Solver           209         1   -5.490583E-06                   1_GWF-(2,1,886)
 Under-relaxation        209             -5.490583E-06                   1_GWF-(2,1,886)
 Linear Solver           210         1   -5.440183E-06                   1_GWF-(2,1,886)
 Under-relaxation        210             -5.440183E-06                   1_GWF-(2,1,886)
 Linear Solver           211         1   -5.390860E-06                   1_GWF-(2,1,886)
 Under-relaxation        211             -5.390860E-06                   1_GWF-(2,1,886)
 Linear Solver           212         1   -5.342577E-06                   1_GWF-(2,1,886)
 Under-relaxation        212             -5.342577E-06                   1_GWF-(2,1,886)
 Linear Solver           213         1   -5.295377E-06                   1_GWF-(2,1,887)
 Under-relaxation        213             -5.295377E-06                   1_GWF-(2,1,887)
 Linear Solver           214         1   -5.249479E-06                   1_GWF-(2,1,887)
 Under-relaxation        214             -5.249479E-06                   1_GWF-(2,1,887)
 Linear Solver           215         1   -5.204504E-06                   1_GWF-(2,1,887)
 Under-relaxation        215             -5.204504E-06                   1_GWF-(2,1,887)
 Linear Solver           216         1   -5.160420E-06                   1_GWF-(2,1,887)
 Under-relaxation        216             -5.160420E-06                   1_GWF-(2,1,887)
 Linear Solver           217         1   -5.117252E-06                   1_GWF-(2,1,888)
 Under-relaxation        217             -5.117252E-06                   1_GWF-(2,1,888)
 Linear Solver           218         1   -5.075252E-06                   1_GWF-(2,1,888)
 Under-relaxation        218             -5.075252E-06                   1_GWF-(2,1,888)
 Linear Solver           219         1   -5.034046E-06                   1_GWF-(2,1,888)
 Under-relaxation        219             -5.034046E-06                   1_GWF-(2,1,888)
 Linear Solver           220         1   -4.993611E-06                   1_GWF-(2,1,888)
 Under-relaxation        220             -4.993611E-06                   1_GWF-(2,1,888)
 Linear Solver           221         1   -4.953922E-06                   1_GWF-(2,1,888)
 Under-relaxation        221             -4.953922E-06                   1_GWF-(2,1,888)
 Linear Solver           222         1   -4.915310E-06                   1_GWF-(2,1,889)
 Under-relaxation        222             -4.915310E-06                   1_GWF-(2,1,889)
 Linear Solver           223         1   -4.877398E-06                   1_GWF-(2,1,889)
 Under-relaxation        223             -4.877398E-06                   1_GWF-(2,1,889)
 Linear Solver           224         1   -4.840154E-06                   1_GWF-(2,1,889)
 Under-relaxation        224             -4.840154E-06                   1_GWF-(2,1,889)
 Linear Solver           225         1   -4.803559E-06                   1_GWF-(2,1,889)
 Under-relaxation        225             -4.803559E-06                   1_GWF-(2,1,889)
 Linear Solver           226         1   -4.767835E-06                   1_GWF-(2,1,890)
 Under-relaxation        226             -4.767835E-06                   1_GWF-(2,1,890)
 Linear Solver           227         1   -4.732817E-06                   1_GWF-(2,1,890)
 Under-relaxation        227             -4.732817E-06                   1_GWF-(2,1,890)
 Linear Solver           228         1   -4.698382E-06                   1_GWF-(2,1,890)
 Under-relaxation        228             -4.698382E-06                   1_GWF-(2,1,890)
 Linear Solver           229         1   -4.664515E-06                   1_GWF-(2,1,890)
 Under-relaxation        229             -4.664515E-06                   1_GWF-(2,1,890)
 Linear Solver           230         1   -4.631305E-06                   1_GWF-(2,1,891)
 Under-relaxation        230             -4.631305E-06                   1_GWF-(2,1,891)
 Linear Solver           231         1   -4.598845E-06                   1_GWF-(2,1,891)
 Under-relaxation        231             -4.598845E-06                   1_GWF-(2,1,891)
 Linear Solver           232         1   -4.566898E-06                   1_GWF-(2,1,891)
 Under-relaxation        232             -4.566898E-06                   1_GWF-(2,1,891)
 Linear Solver           233         1   -4.535449E-06                   1_GWF-(2,1,891)
 Under-relaxation        233             -4.535449E-06                   1_GWF-(2,1,891)
 Linear Solver           234         1   -4.504486E-06                   1_GWF-(2,1,891)
 Under-relaxation        234             -4.504486E-06                   1_GWF-(2,1,891)
 Linear Solver           235         1   -4.474250E-06                   1_GWF-(2,1,892)
 Under-relaxation        235             -4.474250E-06                   1_GWF-(2,1,892)
 Linear Solver           236         1   -4.444516E-06                   1_GWF-(2,1,892)
 Under-relaxation        236             -4.444516E-06                   1_GWF-(2,1,892)
 Linear Solver           237         1   -4.415222E-06                   1_GWF-(2,1,892)
 Under-relaxation        237             -4.415222E-06                   1_GWF-(2,1,892)
 Linear Solver           238         1   -4.386358E-06                   1_GWF-(2,1,892)
 Under-relaxation        238             -4.386358E-06                   1_GWF-(2,1,892)
 Linear Solver           239         1   -4.357983E-06                   1_GWF-(2,1,893)
 Under-relaxation        239             -4.357983E-06                   1_GWF-(2,1,893)
 Linear Solver           240         1   -4.330228E-06                   1_GWF-(2,1,893)
 Under-relaxation        240             -4.330228E-06                   1_GWF-(2,1,893)
 Linear Solver           241         1   -4.302863E-06                   1_GWF-(2,1,893)
 Under-relaxation        241             -4.302863E-06                   1_GWF-(2,1,893)
 Linear Solver           242         1   -4.275880E-06                   1_GWF-(2,1,893)
 Under-relaxation        242             -4.275880E-06                   1_GWF-(2,1,893)
 Linear Solver           243         1   -4.249267E-06                   1_GWF-(2,1,893)
 Under-relaxation        243             -4.249267E-06                   1_GWF-(2,1,893)
 Linear Solver           244         1   -4.223168E-06                   1_GWF-(2,1,894)
 Under-relaxation        244             -4.223168E-06                   1_GWF-(2,1,894)
 Linear Solver           245         1   -4.197538E-06                   1_GWF-(2,1,894)
 Under-relaxation        245             -4.197538E-06                   1_GWF-(2,1,894)
 Linear Solver           246         1   -4.172248E-06                   1_GWF-(2,1,894)
 Under-relaxation        246             -4.172248E-06                   1_GWF-(2,1,894)
 Linear Solver           247         1   -4.147289E-06                   1_GWF-(2,1,894)
 Under-relaxation        247             -4.147289E-06                   1_GWF-(2,1,894)
 Linear Solver           248         1   -4.122652E-06                   1_GWF-(2,1,894)
 Under-relaxation        248             -4.122652E-06                   1_GWF-(2,1,894)
 Linear Solver           249         1   -4.098528E-06                   1_GWF-(2,1,895)
 Under-relaxation        249             -4.098528E-06                   1_GWF-(2,1,895)
 Linear Solver           250         1   -4.074767E-06                   1_GWF-(2,1,895)
 Under-relaxation        250             -4.074767E-06                   1_GWF-(2,1,895)
 Linear Solver           251         1   -4.051303E-06                   1_GWF-(2,1,895)
 Under-relaxation        251             -4.051303E-06                   1_GWF-(2,1,895)
 Linear Solver           252         1   -4.028129E-06                   1_GWF-(2,1,895)
 Under-relaxation        252             -4.028129E-06                   1_GWF-(2,1,895)
 Linear Solver           253         1   -4.005237E-06                   1_GWF-(2,1,895)
 Under-relaxation        253             -4.005237E-06                   1_GWF-(2,1,895)
 Linear Solver           254         1   -3.982834E-06                   1_GWF-(2,1,896)
 Under-relaxation        254             -3.982834E-06                   1_GWF-(2,1,896)
 Linear Solver           255         1   -3.960728E-06                   1_GWF-(2,1,896)
 Under-relaxation        255             -3.960728E-06                   1_GWF-(2,1,896)
 Linear Solver           256         1   -3.938882E-06                   1_GWF-(2,1,896)
 Under-relaxation        256             -3.938882E-06                   1_GWF-(2,1,896)
 Linear Solver           257         1   -3.917290E-06                   1_GWF-(2,1,896)
 Under-relaxation        257             -3.917290E-06                   1_GWF-(2,1,896)
 Linear Solver           258         1   -3.895948E-06                   1_GWF-(2,1,896)
 Under-relaxation        258             -3.895948E-06                   1_GWF-(2,1,896)
 Linear Solver           259         1   -3.875051E-06                   1_GWF-(2,1,897)
 Under-relaxation        259             -3.875051E-06                   1_GWF-(2,1,897)
 Linear Solver           260         1   -3.854416E-06                   1_GWF-(2,1,897)
 Under-relaxation        260             -3.854416E-06                   1_GWF-(2,1,897)
 Linear Solver           261         1   -3.834012E-06                   1_GWF-(2,1,897)
 Under-relaxation        261             -3.834012E-06                   1_GWF-(2,1,897)
 Linear Solver           262         1   -3.813831E-06                   1_GWF-(2,1,897)
 Under-relaxation        262             -3.813831E-06                   1_GWF-(2,1,897)
 Linear Solver           263         1   -3.793871E-06                   1_GWF-(2,1,897)
 Under-relaxation        263             -3.793871E-06                   1_GWF-(2,1,897)
 Linear Solver           264         1   -3.774299E-06                   1_GWF-(2,1,898)
 Under-relaxation        264             -3.774299E-06                   1_GWF-(2,1,898)
 Linear Solver           265         1   -3.754981E-06                   1_GWF-(2,1,898)
 Under-relaxation        265             -3.754981E-06                   1_GWF-(2,1,898)
 Linear Solver           266         1   -3.735865E-06                   1_GWF-(2,1,898)
 Under-relaxation        266             -3.735865E-06                   1_GWF-(2,1,898)
 Linear Solver           267         1   -3.716949E-06                   1_GWF-(2,1,898)
 Under-relaxation        267             -3.716949E-06                   1_GWF-(2,1,898)
 Linear Solver           268         1   -3.698228E-06                   1_GWF-(2,1,898)
 Under-relaxation        268             -3.698228E-06                   1_GWF-(2,1,898)
 Linear Solver           269         1   -3.679826E-06                   1_GWF-(2,1,899)
 Under-relaxation        269             -3.679826E-06                   1_GWF-(2,1,899)
 Linear Solver           270         1   -3.661690E-06                   1_GWF-(2,1,899)
 Under-relaxation        270             -3.661690E-06                   1_GWF-(2,1,899)
 Linear Solver           271         1   -3.643734E-06                   1_GWF-(2,1,899)
 Under-relaxation        271             -3.643734E-06                   1_GWF-(2,1,899)
 Linear Solver           272         1   -3.625955E-06                   1_GWF-(2,1,899)
 Under-relaxation        272             -3.625955E-06                   1_GWF-(2,1,899)
 Linear Solver           273         1   -3.608350E-06                   1_GWF-(2,1,899)
 Under-relaxation        273             -3.608350E-06                   1_GWF-(2,1,899)
 Linear Solver           274         1   -3.590985E-06                   1_GWF-(2,1,900)
 Under-relaxation        274             -3.590985E-06                   1_GWF-(2,1,900)
 Linear Solver           275         1   -3.573914E-06                   1_GWF-(2,1,900)
 Under-relaxation        275             -3.573914E-06                   1_GWF-(2,1,900)
 Linear Solver           276         1   -3.557005E-06                   1_GWF-(2,1,900)
 Under-relaxation        276             -3.557005E-06                   1_GWF-(2,1,900)
 Linear Solver           277         1   -3.540254E-06                   1_GWF-(2,1,900)
 Under-relaxation        277             -3.540254E-06                   1_GWF-(2,1,900)
 Linear Solver           278         1   -3.523658E-06                   1_GWF-(2,1,900)
 Under-relaxation        278             -3.523658E-06                   1_GWF-(2,1,900)
 Linear Solver           279         1   -3.507216E-06                   1_GWF-(2,1,901)
 Under-relaxation        279             -3.507216E-06                   1_GWF-(2,1,901)
 Linear Solver           280         1   -3.491111E-06                   1_GWF-(2,1,901)
 Under-relaxation        280             -3.491111E-06                   1_GWF-(2,1,901)
 Linear Solver           281         1   -3.475150E-06                   1_GWF-(2,1,901)
 Under-relaxation        281             -3.475150E-06                   1_GWF-(2,1,901)
 Linear Solver           282         1   -3.459332E-06                   1_GWF-(2,1,901)
 Under-relaxation        282             -3.459332E-06                   1_GWF-(2,1,901)
 Linear Solver           283         1   -3.443652E-06                   1_GWF-(2,1,901)
 Under-relaxation        283             -3.443652E-06                   1_GWF-(2,1,901)
 Linear Solver           284         1   -3.428110E-06                   1_GWF-(2,1,901)
 Under-relaxation        284             -3.428110E-06                   1_GWF-(2,1,901)
 Linear Solver           285         1   -3.412806E-06                   1_GWF-(2,1,902)
 Under-relaxation        285             -3.412806E-06                   1_GWF-(2,1,902)
 Linear Solver           286         1   -3.397709E-06                   1_GWF-(2,1,902)
 Under-relaxation        286             -3.397709E-06                   1_GWF-(2,1,902)
 Linear Solver           287         1   -3.382739E-06                   1_GWF-(2,1,902)
 Under-relaxation        287             -3.382739E-06                   1_GWF-(2,1,902)
 Linear Solver           288         1   -3.367895E-06                   1_GWF-(2,1,902)
 Under-relaxation        288             -3.367895E-06                   1_GWF-(2,1,902)
 Linear Solver           289         1   -3.353174E-06                   1_GWF-(2,1,902)
 Under-relaxation        289             -3.353174E-06                   1_GWF-(2,1,902)
 Linear Solver           290         1   -3.338587E-06                   1_GWF-(2,1,903)
 Under-relaxation        290             -3.338587E-06                   1_GWF-(2,1,903)
 Linear Solver           291         1   -3.324278E-06                   1_GWF-(2,1,903)
 Under-relaxation        291             -3.324278E-06                   1_GWF-(2,1,903)
 Linear Solver           292         1   -3.310084E-06                   1_GWF-(2,1,903)
 Under-relaxation        292             -3.310084E-06                   1_GWF-(2,1,903)
 Linear Solver           293         1   -3.296004E-06                   1_GWF-(2,1,903)
 Under-relaxation        293             -3.296004E-06                   1_GWF-(2,1,903)
 Linear Solver           294         1   -3.282034E-06                   1_GWF-(2,1,903)
 Under-relaxation        294             -3.282034E-06                   1_GWF-(2,1,903)
 Linear Solver           295         1   -3.268175E-06                   1_GWF-(2,1,903)
 Under-relaxation        295             -3.268175E-06                   1_GWF-(2,1,903)
 Linear Solver           296         1   -3.254509E-06                   1_GWF-(2,1,904)
 Under-relaxation        296             -3.254509E-06                   1_GWF-(2,1,904)
 Linear Solver           297         1   -3.241026E-06                   1_GWF-(2,1,904)
 Under-relaxation        297             -3.241026E-06                   1_GWF-(2,1,904)
 Linear Solver           298         1   -3.227645E-06                   1_GWF-(2,1,904)
 Under-relaxation        298             -3.227645E-06                   1_GWF-(2,1,904)
 Linear Solver           299         1   -3.214366E-06                   1_GWF-(2,1,904)
 Under-relaxation        299             -3.214366E-06                   1_GWF-(2,1,904)
 Linear Solver           300         1   -3.201185E-06                   1_GWF-(2,1,904)
 Under-relaxation        300             -3.201185E-06                   1_GWF-(2,1,904)
 Linear Solver           301         1   -3.188103E-06                   1_GWF-(2,1,904)
 Under-relaxation        301             -3.188103E-06                   1_GWF-(2,1,904)
 Linear Solver           302         1   -3.175231E-06                   1_GWF-(2,1,905)
 Under-relaxation        302             -3.175231E-06                   1_GWF-(2,1,905)
 Linear Solver           303         1   -3.162494E-06                   1_GWF-(2,1,905)
 Under-relaxation        303             -3.162494E-06                   1_GWF-(2,1,905)
 Linear Solver           304         1   -3.149850E-06                   1_GWF-(2,1,905)
 Under-relaxation        304             -3.149850E-06                   1_GWF-(2,1,905)
 Linear Solver           305         1   -3.137295E-06                   1_GWF-(2,1,905)
 Under-relaxation        305             -3.137295E-06                   1_GWF-(2,1,905)
 Linear Solver           306         1   -3.124829E-06                   1_GWF-(2,1,905)
 Under-relaxation        306             -3.124829E-06                   1_GWF-(2,1,905)
 Linear Solver           307         1   -3.112451E-06                   1_GWF-(2,1,905)
 Under-relaxation        307             -3.112451E-06                   1_GWF-(2,1,905)
 Linear Solver           308         1   -3.100290E-06                   1_GWF-(2,1,906)
 Under-relaxation        308             -3.100290E-06                   1_GWF-(2,1,906)
 Linear Solver           309         1   -3.088231E-06                   1_GWF-(2,1,906)
 Under-relaxation        309             -3.088231E-06                   1_GWF-(2,1,906)
 Linear Solver           310         1   -3.076254E-06                   1_GWF-(2,1,906)
 Under-relaxation        310             -3.076254E-06                   1_GWF-(2,1,906)
 Linear Solver           311         1   -3.064359E-06                   1_GWF-(2,1,906)
 Under-relaxation        311             -3.064359E-06                   1_GWF-(2,1,906)
 Linear Solver           312         1   -3.052543E-06                   1_GWF-(2,1,906)
 Under-relaxation        312             -3.052543E-06                   1_GWF-(2,1,906)
 Linear Solver           313         1   -3.040806E-06                   1_GWF-(2,1,906)
 Under-relaxation        313             -3.040806E-06                   1_GWF-(2,1,906)
 Linear Solver           314         1   -3.029282E-06                   1_GWF-(2,1,907)
 Under-relaxation        314             -3.029282E-06                   1_GWF-(2,1,907)
 Linear Solver           315         1   -3.017840E-06                   1_GWF-(2,1,907)
 Under-relaxation        315             -3.017840E-06                   1_GWF-(2,1,907)
 Linear Solver           316         1   -3.006473E-06                   1_GWF-(2,1,907)
 Under-relaxation        316             -3.006473E-06                   1_GWF-(2,1,907)
 Linear Solver           317         1   -2.995178E-06                   1_GWF-(2,1,907)
 Under-relaxation        317             -2.995178E-06                   1_GWF-(2,1,907)
 Linear Solver           318         1   -2.983956E-06                   1_GWF-(2,1,907)
 Under-relaxation        318             -2.983956E-06                   1_GWF-(2,1,907)
 Linear Solver           319         1   -2.972804E-06                   1_GWF-(2,1,907)
 Under-relaxation        319             -2.972804E-06                   1_GWF-(2,1,907)
 Linear Solver           320         1   -2.961853E-06                   1_GWF-(2,1,908)
 Under-relaxation        320             -2.961853E-06                   1_GWF-(2,1,908)
 Linear Solver           321         1   -2.950976E-06                   1_GWF-(2,1,908)
 Under-relaxation        321             -2.950976E-06                   1_GWF-(2,1,908)
 Linear Solver           322         1   -2.940166E-06                   1_GWF-(2,1,908)
 Under-relaxation        322             -2.940166E-06                   1_GWF-(2,1,908)
 Linear Solver           323         1   -2.929421E-06                   1_GWF-(2,1,908)
 Under-relaxation        323             -2.929421E-06                   1_GWF-(2,1,908)
 Linear Solver           324         1   -2.918742E-06                   1_GWF-(2,1,908)
 Under-relaxation        324             -2.918742E-06                   1_GWF-(2,1,908)
 Linear Solver           325         1   -2.908127E-06                   1_GWF-(2,1,908)
 Under-relaxation        325             -2.908127E-06                   1_GWF-(2,1,908)
 Linear Solver           326         1   -2.897691E-06                   1_GWF-(2,1,909)
 Under-relaxation        326             -2.897691E-06                   1_GWF-(2,1,909)
 Linear Solver           327         1   -2.887332E-06                   1_GWF-(2,1,909)
 Under-relaxation        327             -2.887332E-06                   1_GWF-(2,1,909)
 Linear Solver           328         1   -2.877033E-06                   1_GWF-(2,1,909)
 Under-relaxation        328             -2.877033E-06                   1_GWF-(2,1,909)
 Linear Solver           329         1   -2.866795E-06                   1_GWF-(2,1,909)
 Under-relaxation        329             -2.866795E-06                   1_GWF-(2,1,909)
 Linear Solver           330         1   -2.856615E-06                   1_GWF-(2,1,909)
 Under-relaxation        330             -2.856615E-06                   1_GWF-(2,1,909)
 Linear Solver           331         1   -2.846493E-06                   1_GWF-(2,1,909)
 Under-relaxation        331             -2.846493E-06                   1_GWF-(2,1,909)
 Linear Solver           332         1   -2.836522E-06                   1_GWF-(2,1,910)
 Under-relaxation        332             -2.836522E-06                   1_GWF-(2,1,910)
 Linear Solver           333         1   -2.826640E-06                   1_GWF-(2,1,910)
 Under-relaxation        333             -2.826640E-06                   1_GWF-(2,1,910)
 Linear Solver           334         1   -2.816812E-06                   1_GWF-(2,1,910)
 Under-relaxation        334             -2.816812E-06                   1_GWF-(2,1,910)
 Linear Solver           335         1   -2.807039E-06                   1_GWF-(2,1,910)
 Under-relaxation        335             -2.807039E-06                   1_GWF-(2,1,910)
 Linear Solver           336         1   -2.797320E-06                   1_GWF-(2,1,910)
 Under-relaxation        336             -2.797320E-06                   1_GWF-(2,1,910)
 Linear Solver           337         1   -2.787654E-06                   1_GWF-(2,1,910)
 Under-relaxation        337             -2.787654E-06                   1_GWF-(2,1,910)
 Linear Solver           338         1   -2.778102E-06                   1_GWF-(2,1,911)
 Under-relaxation        338             -2.778102E-06                   1_GWF-(2,1,911)
 Linear Solver           339         1   -2.768660E-06                   1_GWF-(2,1,911)
 Under-relaxation        339             -2.768660E-06                   1_GWF-(2,1,911)
 Linear Solver           340         1   -2.759268E-06                   1_GWF-(2,1,911)
 Under-relaxation        340             -2.759268E-06                   1_GWF-(2,1,911)
 Linear Solver           341         1   -2.749925E-06                   1_GWF-(2,1,911)
 Under-relaxation        341             -2.749925E-06                   1_GWF-(2,1,911)
 Linear Solver           342         1   -2.740631E-06                   1_GWF-(2,1,911)
 Under-relaxation        342             -2.740631E-06                   1_GWF-(2,1,911)
 Linear Solver           343         1   -2.731386E-06                   1_GWF-(2,1,911)
 Under-relaxation        343             -2.731386E-06                   1_GWF-(2,1,911)
 Linear Solver           344         1   -2.722214E-06                   1_GWF-(2,1,912)
 Under-relaxation        344             -2.722214E-06                   1_GWF-(2,1,912)
 Linear Solver           345         1   -2.713179E-06                   1_GWF-(2,1,912)
 Under-relaxation        345             -2.713179E-06                   1_GWF-(2,1,912)
 Linear Solver           346         1   -2.704190E-06                   1_GWF-(2,1,912)
 Under-relaxation        346             -2.704190E-06                   1_GWF-(2,1,912)
 Linear Solver           347         1   -2.695247E-06                   1_GWF-(2,1,912)
 Under-relaxation        347             -2.695247E-06                   1_GWF-(2,1,912)
 Linear Solver           348         1   -2.686348E-06                   1_GWF-(2,1,912)
 Under-relaxation        348             -2.686348E-06                   1_GWF-(2,1,912)
 Linear Solver           349         1   -2.677494E-06                   1_GWF-(2,1,912)
 Under-relaxation        349             -2.677494E-06                   1_GWF-(2,1,912)
 Linear Solver           350         1   -2.668683E-06                   1_GWF-(2,1,912)
 Under-relaxation        350             -2.668683E-06                   1_GWF-(2,1,912)
 Linear Solver           351         1   -2.660008E-06                   1_GWF-(2,1,913)
 Under-relaxation        351             -2.660008E-06                   1_GWF-(2,1,913)
 Linear Solver           352         1   -2.651394E-06                   1_GWF-(2,1,913)
 Under-relaxation        352             -2.651394E-06                   1_GWF-(2,1,913)
 Linear Solver           353         1   -2.642821E-06                   1_GWF-(2,1,913)
 Under-relaxation        353             -2.642821E-06                   1_GWF-(2,1,913)
 Linear Solver           354         1   -2.634290E-06                   1_GWF-(2,1,913)
 Under-relaxation        354             -2.634290E-06                   1_GWF-(2,1,913)
 Linear Solver           355         1   -2.625799E-06                   1_GWF-(2,1,913)
 Under-relaxation        355             -2.625799E-06                   1_GWF-(2,1,913)
 Linear Solver           356         1   -2.617348E-06                   1_GWF-(2,1,913)
 Under-relaxation        356             -2.617348E-06                   1_GWF-(2,1,913)
 Linear Solver           357         1   -2.608976E-06                   1_GWF-(2,1,914)
 Under-relaxation        357             -2.608976E-06                   1_GWF-(2,1,914)
 Linear Solver           358         1   -2.600711E-06                   1_GWF-(2,1,914)
 Under-relaxation        358             -2.600711E-06                   1_GWF-(2,1,914)
 Linear Solver           359         1   -2.592484E-06                   1_GWF-(2,1,914)
 Under-relaxation        359             -2.592484E-06                   1_GWF-(2,1,914)
 Linear Solver           360         1   -2.584294E-06                   1_GWF-(2,1,914)
 Under-relaxation        360             -2.584294E-06                   1_GWF-(2,1,914)
 Linear Solver           361         1   -2.576142E-06                   1_GWF-(2,1,914)
 Under-relaxation        361             -2.576142E-06                   1_GWF-(2,1,914)
 Linear Solver           362         1   -2.568027E-06                   1_GWF-(2,1,914)
 Under-relaxation        362             -2.568027E-06                   1_GWF-(2,1,914)
 Linear Solver           363         1   -2.559949E-06                   1_GWF-(2,1,914)
 Under-relaxation        363             -2.559949E-06                   1_GWF-(2,1,914)
 Linear Solver           364         1   -2.551990E-06                   1_GWF-(2,1,915)
 Under-relaxation        364             -2.551990E-06                   1_GWF-(2,1,915)
 Linear Solver           365         1   -2.544086E-06                   1_GWF-(2,1,915)
 Under-relaxation        365             -2.544086E-06                   1_GWF-(2,1,915)
 Linear Solver           366         1   -2.536216E-06                   1_GWF-(2,1,915)
 Under-relaxation        366             -2.536216E-06                   1_GWF-(2,1,915)
 Linear Solver           367         1   -2.528381E-06                   1_GWF-(2,1,915)
 Under-relaxation        367             -2.528381E-06                   1_GWF-(2,1,915)
 Linear Solver           368         1   -2.520579E-06                   1_GWF-(2,1,915)
 Under-relaxation        368             -2.520579E-06                   1_GWF-(2,1,915)
 Linear Solver           369         1   -2.512812E-06                   1_GWF-(2,1,915)
 Under-relaxation        369             -2.512812E-06                   1_GWF-(2,1,915)
 Linear Solver           370         1   -2.505097E-06                   1_GWF-(2,1,916)
 Under-relaxation        370             -2.505097E-06                   1_GWF-(2,1,916)
 Linear Solver           371         1   -2.497494E-06                   1_GWF-(2,1,916)
 Under-relaxation        371             -2.497494E-06                   1_GWF-(2,1,916)
 Linear Solver           372         1   -2.489924E-06                   1_GWF-(2,1,916)
 Under-relaxation        372             -2.489924E-06                   1_GWF-(2,1,916)
 Linear Solver           373         1   -2.482385E-06                   1_GWF-(2,1,916)
 Under-relaxation        373             -2.482385E-06                   1_GWF-(2,1,916)
 Linear Solver           374         1   -2.474878E-06                   1_GWF-(2,1,916)
 Under-relaxation        374             -2.474878E-06                   1_GWF-(2,1,916)
 Linear Solver           375         1   -2.467402E-06                   1_GWF-(2,1,916)
 Under-relaxation        375             -2.467402E-06                   1_GWF-(2,1,916)
 Linear Solver           376         1   -2.459958E-06                   1_GWF-(2,1,916)
 Under-relaxation        376             -2.459958E-06                   1_GWF-(2,1,916)
 Linear Solver           377         1   -2.452587E-06                   1_GWF-(2,1,917)
 Under-relaxation        377             -2.452587E-06                   1_GWF-(2,1,917)
 Linear Solver           378         1   -2.445298E-06                   1_GWF-(2,1,917)
 Under-relaxation        378             -2.445298E-06                   1_GWF-(2,1,917)
 Linear Solver           379         1   -2.438038E-06                   1_GWF-(2,1,917)
 Under-relaxation        379             -2.438038E-06                   1_GWF-(2,1,917)
 Linear Solver           380         1   -2.430807E-06                   1_GWF-(2,1,917)
 Under-relaxation        380             -2.430807E-06                   1_GWF-(2,1,917)
 Linear Solver           381         1   -2.423605E-06                   1_GWF-(2,1,917)
 Under-relaxation        381             -2.423605E-06                   1_GWF-(2,1,917)
 Linear Solver           382         1   -2.416432E-06                   1_GWF-(2,1,917)
 Under-relaxation        382             -2.416432E-06                   1_GWF-(2,1,917)
 Linear Solver           383         1   -2.409287E-06                   1_GWF-(2,1,917)
 Under-relaxation        383             -2.409287E-06                   1_GWF-(2,1,917)
 Linear Solver           384         1   -2.402230E-06                   1_GWF-(2,1,918)
 Under-relaxation        384             -2.402230E-06                   1_GWF-(2,1,918)
 Linear Solver           385         1   -2.395232E-06                   1_GWF-(2,1,918)
 Under-relaxation        385             -2.395232E-06                   1_GWF-(2,1,918)
 Linear Solver           386         1   -2.388261E-06                   1_GWF-(2,1,918)
 Under-relaxation        386             -2.388261E-06                   1_GWF-(2,1,918)
 Linear Solver           387         1   -2.381317E-06                   1_GWF-(2,1,918)
 Under-relaxation        387             -2.381317E-06                   1_GWF-(2,1,918)
 Linear Solver           388         1   -2.374400E-06                   1_GWF-(2,1,918)
 Under-relaxation        388             -2.374400E-06                   1_GWF-(2,1,918)
 Linear Solver           389         1   -2.367509E-06                   1_GWF-(2,1,918)
 Under-relaxation        389             -2.367509E-06                   1_GWF-(2,1,918)
 Linear Solver           390         1   -2.360644E-06                   1_GWF-(2,1,918)
 Under-relaxation        390             -2.360644E-06                   1_GWF-(2,1,918)
 Linear Solver           391         1   -2.353871E-06                   1_GWF-(2,1,919)
 Under-relaxation        391             -2.353871E-06                   1_GWF-(2,1,919)
 Linear Solver           392         1   -2.347145E-06                   1_GWF-(2,1,919)
 Under-relaxation        392             -2.347145E-06                   1_GWF-(2,1,919)
 Linear Solver           393         1   -2.340444E-06                   1_GWF-(2,1,919)
 Under-relaxation        393             -2.340444E-06                   1_GWF-(2,1,919)
 Linear Solver           394         1   -2.333768E-06                   1_GWF-(2,1,919)
 Under-relaxation        394             -2.333768E-06                   1_GWF-(2,1,919)
 Linear Solver           395         1   -2.327116E-06                   1_GWF-(2,1,919)
 Under-relaxation        395             -2.327116E-06                   1_GWF-(2,1,919)
 Linear Solver           396         1   -2.320489E-06                   1_GWF-(2,1,919)
 Under-relaxation        396             -2.320489E-06                   1_GWF-(2,1,919)
 Linear Solver           397         1   -2.313887E-06                   1_GWF-(2,1,919)
 Under-relaxation        397             -2.313887E-06                   1_GWF-(2,1,919)
 Linear Solver           398         1   -2.307371E-06                   1_GWF-(2,1,920)
 Under-relaxation        398             -2.307371E-06                   1_GWF-(2,1,920)
 Linear Solver           399         1   -2.300899E-06                   1_GWF-(2,1,920)
 Under-relaxation        399             -2.300899E-06                   1_GWF-(2,1,920)
 Linear Solver           400         1   -2.294451E-06                   1_GWF-(2,1,920)
 Under-relaxation        400             -2.294451E-06                   1_GWF-(2,1,920)
 Linear Solver           401         1   -2.288026E-06                   1_GWF-(2,1,920)
 Under-relaxation        401             -2.288026E-06                   1_GWF-(2,1,920)
 Linear Solver           402         1   -2.281623E-06                   1_GWF-(2,1,920)
 Under-relaxation        402             -2.281623E-06                   1_GWF-(2,1,920)
 Linear Solver           403         1   -2.275244E-06                   1_GWF-(2,1,920)
 Under-relaxation        403             -2.275244E-06                   1_GWF-(2,1,920)
 Linear Solver           404         1   -2.268887E-06                   1_GWF-(2,1,920)
 Under-relaxation        404             -2.268887E-06                   1_GWF-(2,1,920)
 Linear Solver           405         1   -2.262603E-06                   1_GWF-(2,1,921)
 Under-relaxation        405             -2.262603E-06                   1_GWF-(2,1,921)
 Linear Solver           406         1   -2.256371E-06                   1_GWF-(2,1,921)
 Under-relaxation        406             -2.256371E-06                   1_GWF-(2,1,921)
 Linear Solver           407         1   -2.250160E-06                   1_GWF-(2,1,921)
 Under-relaxation        407             -2.250160E-06                   1_GWF-(2,1,921)
 Linear Solver           408         1   -2.243970E-06                   1_GWF-(2,1,921)
 Under-relaxation        408             -2.243970E-06                   1_GWF-(2,1,921)
 Linear Solver           409         1   -2.237802E-06                   1_GWF-(2,1,921)
 Under-relaxation        409             -2.237802E-06                   1_GWF-(2,1,921)
 Linear Solver           410         1   -2.231654E-06                   1_GWF-(2,1,921)
 Under-relaxation        410             -2.231654E-06                   1_GWF-(2,1,921)
 Linear Solver           411         1   -2.225528E-06                   1_GWF-(2,1,921)
 Under-relaxation        411             -2.225528E-06                   1_GWF-(2,1,921)
 Linear Solver           412         1   -2.219456E-06                   1_GWF-(2,1,922)
 Under-relaxation        412             -2.219456E-06                   1_GWF-(2,1,922)
 Linear Solver           413         1   -2.213448E-06                   1_GWF-(2,1,922)
 Under-relaxation        413             -2.213448E-06                   1_GWF-(2,1,922)
 Linear Solver           414         1   -2.207460E-06                   1_GWF-(2,1,922)
 Under-relaxation        414             -2.207460E-06                   1_GWF-(2,1,922)
 Linear Solver           415         1   -2.201492E-06                   1_GWF-(2,1,922)
 Under-relaxation        415             -2.201492E-06                   1_GWF-(2,1,922)
 Linear Solver           416         1   -2.195544E-06                   1_GWF-(2,1,922)
[...]
       3987      2959         1                   1_GWF-(2,1,999) -0.4490728E-08                   1_GWF-(1,1,961)  0.7596873E-10
       3988      2960         1                   1_GWF-(2,1,999) -0.4488134E-08                   1_GWF-(1,1,961)  0.7595475E-10
       3989      2961         1                   1_GWF-(2,1,999) -0.4485542E-08                   1_GWF-(1,1,961)  0.7594076E-10
       3990      2962         1                   1_GWF-(2,1,999) -0.4482953E-08                   1_GWF-(1,1,961)  0.7592679E-10
       3991      2963         1                   1_GWF-(2,1,999) -0.4480366E-08                   1_GWF-(1,1,961)  0.7591282E-10
       3992      2964         1                   1_GWF-(2,1,999) -0.4477782E-08                   1_GWF-(1,1,961)  0.7589887E-10
       3993      2965         1                   1_GWF-(2,1,999) -0.4475200E-08                   1_GWF-(1,1,961)  0.7588491E-10
       3994      2966         1                   1_GWF-(2,1,999) -0.4472620E-08                   1_GWF-(1,1,961)  0.7587097E-10
       3995      2967         1                   1_GWF-(2,1,999) -0.4470043E-08                   1_GWF-(1,1,961)  0.7585703E-10
       3996      2968         1                   1_GWF-(2,1,999) -0.4467468E-08                   1_GWF-(1,1,961)  0.7584309E-10
       3997      2969         1                   1_GWF-(2,1,999) -0.4464895E-08                   1_GWF-(1,1,961)  0.7582917E-10
       3998      2970         1                   1_GWF-(2,1,999) -0.4462326E-08                   1_GWF-(1,1,961)  0.7581526E-10
       3999      2971         1                   1_GWF-(2,1,999) -0.4459758E-08                   1_GWF-(1,1,961)  0.7580135E-10
       4000      2972         1                   1_GWF-(2,1,999) -0.4457192E-08                   1_GWF-(1,1,961)  0.7578744E-10
       4001      2973         1                   1_GWF-(2,1,999) -0.4454630E-08                   1_GWF-(1,1,961)  0.7577355E-10
       4002      2974         1                   1_GWF-(2,1,999) -0.4452069E-08                   1_GWF-(1,1,961)  0.7575966E-10
       4003      2975         1                   1_GWF-(2,1,999) -0.4449511E-08                   1_GWF-(1,1,961)  0.7574578E-10
       4004      2976         1                   1_GWF-(2,1,999) -0.4446954E-08                   1_GWF-(1,1,961)  0.7573190E-10
       4005      2977         1                   1_GWF-(2,1,999) -0.4444401E-08                   1_GWF-(1,1,961)  0.7571803E-10
       4006      2978         1                   1_GWF-(2,1,999) -0.4441850E-08                   1_GWF-(1,1,961)  0.7570418E-10
       4007      2979         1                   1_GWF-(2,1,999) -0.4439301E-08                   1_GWF-(1,1,961)  0.7569033E-10
       4008      2980         1                   1_GWF-(2,1,999) -0.4436754E-08                   1_GWF-(1,1,962)  0.7567652E-10
       4009      2981         1                   1_GWF-(2,1,999) -0.4434210E-08                   1_GWF-(1,1,962)  0.7566274E-10
       4010      2982         1                   1_GWF-(2,1,999) -0.4431668E-08                   1_GWF-(1,1,962)  0.7564897E-10
       4011      2983         1                   1_GWF-(2,1,999) -0.4429129E-08                   1_GWF-(1,1,962)  0.7563520E-10
       4012      2984         1                   1_GWF-(2,1,999) -0.4426592E-08                   1_GWF-(1,1,962)  0.7562144E-10
       4013      2985         1                   1_GWF-(2,1,999) -0.4424057E-08                   1_GWF-(1,1,962)  0.7560768E-10
       4014      2986         1                   1_GWF-(2,1,999) -0.4421524E-08                   1_GWF-(1,1,962)  0.7559394E-10
       4015      2987         1                   1_GWF-(2,1,999) -0.4418994E-08                   1_GWF-(1,1,962)  0.7558020E-10
       4016      2988         1                   1_GWF-(2,1,999) -0.4416467E-08                   1_GWF-(1,1,962)  0.7556647E-10
       4017      2989         1                   1_GWF-(2,1,999) -0.4413940E-08                   1_GWF-(1,1,962)  0.7555274E-10
       4018      2990         1                   1_GWF-(2,1,999) -0.4411417E-08                   1_GWF-(1,1,962)  0.7553902E-10
       4019      2991         1                   1_GWF-(2,1,999) -0.4408896E-08                   1_GWF-(1,1,962)  0.7552531E-10
       4020      2992         1                   1_GWF-(2,1,999) -0.4406378E-08                   1_GWF-(1,1,962)  0.7551161E-10
       4021      2993         1                   1_GWF-(2,1,999) -0.4403862E-08                   1_GWF-(1,1,962)  0.7549791E-10
       4022      2994         1                   1_GWF-(2,1,999) -0.4401348E-08                   1_GWF-(1,1,962)  0.7548422E-10
       4023      2995         1                   1_GWF-(2,1,999) -0.4398836E-08                   1_GWF-(1,1,962)  0.7547054E-10
       4024      2996         1                   1_GWF-(2,1,999) -0.4396327E-08                   1_GWF-(1,1,962)  0.7545687E-10
       4025      2997         1                   1_GWF-(2,1,999) -0.4393819E-08                   1_GWF-(1,1,962)  0.7544319E-10
       4026      2998         1                   1_GWF-(2,1,999) -0.4391315E-08                   1_GWF-(1,1,962)  0.7542953E-10
       4027      2999         1                   1_GWF-(2,1,999) -0.4388812E-08                   1_GWF-(1,1,962)  0.7541587E-10
       4028      3000         1                   1_GWF-(2,1,999) -0.4386312E-08                   1_GWF-(1,1,962)  0.7540223E-10
       4029      3001         1                   1_GWF-(2,1,999) -0.4383814E-08                   1_GWF-(1,1,962)  0.7538858E-10
       4030      3002         1                   1_GWF-(2,1,999) -0.4381318E-08                   1_GWF-(1,1,962)  0.7537495E-10
       4031      3003         1                   1_GWF-(2,1,999) -0.4378825E-08                   1_GWF-(1,1,962)  0.7536132E-10
       4032      3004         1                   1_GWF-(2,1,999) -0.4376333E-08                   1_GWF-(1,1,962)  0.7534770E-10
       4033      3005         1                   1_GWF-(2,1,999) -0.4373845E-08                   1_GWF-(1,1,962)  0.7533409E-10
       4034      3006         1                   1_GWF-(2,1,999) -0.4371358E-08                   1_GWF-(1,1,962)  0.7532048E-10
       4035      3007         1                   1_GWF-(2,1,999) -0.4368874E-08                   1_GWF-(1,1,962)  0.7530688E-10
       4036      3008         1                   1_GWF-(2,1,999) -0.4366392E-08                   1_GWF-(1,1,962)  0.7529329E-10
       4037      3009         1                   1_GWF-(2,1,999) -0.4363912E-08                   1_GWF-(1,1,962)  0.7527969E-10
       4038      3010         1                   1_GWF-(2,1,999) -0.4361435E-08                   1_GWF-(1,1,962)  0.7526611E-10
       4039      3011         1                   1_GWF-(2,1,999) -0.4358960E-08                   1_GWF-(1,1,962)  0.7525254E-10
       4040      3012         1                   1_GWF-(2,1,999) -0.4356487E-08                   1_GWF-(1,1,962)  0.7523897E-10
       4041      3013         1                   1_GWF-(2,1,999) -0.4354016E-08                   1_GWF-(1,1,962)  0.7522541E-10
       4042      3014         1                   1_GWF-(2,1,999) -0.4351547E-08                   1_GWF-(1,1,962)  0.7521186E-10
       4043      3015         1                   1_GWF-(2,1,999) -0.4349081E-08                   1_GWF-(1,1,962)  0.7519831E-10
       4044      3016         1                   1_GWF-(2,1,999) -0.4346617E-08                   1_GWF-(1,1,962)  0.7518477E-10
       4045      3017         1                   1_GWF-(2,1,999) -0.4344155E-08                   1_GWF-(1,1,962)  0.7517124E-10
       4046      3018         1                   1_GWF-(2,1,999) -0.4341695E-08                   1_GWF-(1,1,962)  0.7515771E-10
       4047      3019         1                   1_GWF-(2,1,999) -0.4339238E-08                   1_GWF-(1,1,962)  0.7514419E-10
       4048      3020         1                   1_GWF-(2,1,999) -0.4336783E-08                   1_GWF-(1,1,962)  0.7513068E-10
       4049      3021         1                   1_GWF-(2,1,999) -0.4334330E-08                   1_GWF-(1,1,962)  0.7511718E-10
       4050      3022         1                   1_GWF-(2,1,999) -0.4331880E-08                   1_GWF-(1,1,962)  0.7510368E-10
       4051      3023         1                   1_GWF-(2,1,999) -0.4329431E-08                   1_GWF-(1,1,962)  0.7509019E-10
       4052      3024         1                   1_GWF-(2,1,999) -0.4326985E-08                   1_GWF-(1,1,962)  0.7507670E-10
       4053      3025         1                   1_GWF-(2,1,999) -0.4324541E-08                   1_GWF-(1,1,962)  0.7506322E-10
       4054      3026         1                   1_GWF-(2,1,999) -0.4322099E-08                   1_GWF-(1,1,962)  0.7504975E-10
       4055      3027         1                   1_GWF-(2,1,999) -0.4319659E-08                   1_GWF-(1,1,962)  0.7503628E-10
       4056      3028         1                   1_GWF-(2,1,999) -0.4317222E-08                   1_GWF-(1,1,962)  0.7502283E-10
       4057      3029         1                   1_GWF-(2,1,999) -0.4314787E-08                   1_GWF-(1,1,962)  0.7500937E-10
       4058      3030         1                   1_GWF-(2,1,999) -0.4312354E-08                   1_GWF-(1,1,962)  0.7499593E-10
       4059      3031         1                   1_GWF-(2,1,999) -0.4309923E-08                   1_GWF-(1,1,962)  0.7498249E-10
       4060      3032         1                   1_GWF-(2,1,999) -0.4307495E-08                   1_GWF-(1,1,962)  0.7496906E-10
       4061      3033         1                   1_GWF-(2,1,999) -0.4305068E-08                   1_GWF-(1,1,962)  0.7495563E-10
       4062      3034         1                   1_GWF-(2,1,999) -0.4302644E-08                   1_GWF-(1,1,962)  0.7494221E-10
       4063      3035         1                   1_GWF-(2,1,999) -0.4300222E-08                   1_GWF-(1,1,962)  0.7492880E-10
       4064      3036         1                   1_GWF-(2,1,999) -0.4297802E-08                   1_GWF-(1,1,962)  0.7491539E-10
       4065      3037         1                   1_GWF-(2,1,999) -0.4295385E-08                   1_GWF-(1,1,962)  0.7490200E-10
       4066      3038         1                   1_GWF-(2,1,999) -0.4292969E-08                   1_GWF-(1,1,962)  0.7488860E-10
       4067      3039         1                   1_GWF-(2,1,999) -0.4290556E-08                   1_GWF-(1,1,962)  0.7487522E-10
       4068      3040         1                   1_GWF-(2,1,999) -0.4288145E-08                   1_GWF-(1,1,962)  0.7486184E-10
       4069      3041         1                   1_GWF-(2,1,999) -0.4285736E-08                   1_GWF-(1,1,962)  0.7484847E-10
       4070      3042         1                   1_GWF-(2,1,999) -0.4283329E-08                   1_GWF-(1,1,962)  0.7483511E-10
       4071      3043         1                   1_GWF-(2,1,999) -0.4280925E-08                   1_GWF-(1,1,962)  0.7482175E-10
       4072      3044         1                   1_GWF-(2,1,999) -0.4278522E-08                   1_GWF-(1,1,962)  0.7480840E-10
       4073      3045         1                   1_GWF-(2,1,999) -0.4276122E-08                   1_GWF-(1,1,962)  0.7479505E-10
       4074      3046         1                   1_GWF-(2,1,999) -0.4273724E-08                   1_GWF-(1,1,962)  0.7478171E-10
       4075      3047         1                   1_GWF-(2,1,999) -0.4271328E-08                   1_GWF-(1,1,962)  0.7476838E-10
       4076      3048         1                   1_GWF-(2,1,999) -0.4268935E-08                   1_GWF-(1,1,962)  0.7475505E-10
       4077      3049         1                   1_GWF-(2,1,999) -0.4266543E-08                   1_GWF-(1,1,962)  0.7474174E-10
       4078      3050         1                   1_GWF-(2,1,999) -0.4264154E-08                   1_GWF-(1,1,962)  0.7472843E-10
       4079      3051         1                   1_GWF-(2,1,999) -0.4261766E-08                   1_GWF-(1,1,962)  0.7471512E-10
       4080      3052         1                   1_GWF-(2,1,999) -0.4259381E-08                   1_GWF-(1,1,962)  0.7470181E-10
       4081      3053         1                   1_GWF-(2,1,999) -0.4256998E-08                   1_GWF-(1,1,962)  0.7468852E-10
       4082      3054         1                   1_GWF-(2,1,999) -0.4254617E-08                   1_GWF-(1,1,962)  0.7467524E-10
       4083      3055         1                   1_GWF-(2,1,999) -0.4252238E-08                   1_GWF-(1,1,962)  0.7466196E-10
       4084      3056         1                   1_GWF-(2,1,999) -0.4249862E-08                   1_GWF-(1,1,962)  0.7464869E-10
       4085      3057         1                   1_GWF-(2,1,999) -0.4247487E-08                   1_GWF-(1,1,962)  0.7463542E-10
       4086      3058         1                   1_GWF-(2,1,999) -0.4245115E-08                   1_GWF-(1,1,962)  0.7462217E-10
       4087      3059         1                   1_GWF-(2,1,999) -0.4242745E-08                   1_GWF-(1,1,962)  0.7460891E-10
       4088      3060         1                   1_GWF-(2,1,999) -0.4240376E-08                   1_GWF-(1,1,962)  0.7459566E-10
       4089      3061         1                   1_GWF-(2,1,999) -0.4238010E-08                   1_GWF-(1,1,962)  0.7458243E-10
       4090      3062         1                   1_GWF-(2,1,999) -0.4235646E-08                   1_GWF-(1,1,962)  0.7456919E-10
       4091      3063         1                   1_GWF-(2,1,999) -0.4233285E-08                   1_GWF-(1,1,962)  0.7455597E-10
       4092      3064         1                   1_GWF-(2,1,999) -0.4230925E-08                   1_GWF-(1,1,962)  0.7454275E-10
       4093      3065         1                   1_GWF-(2,1,999) -0.4228568E-08                   1_GWF-(1,1,962)  0.7452953E-10
       4094      3066         1                   1_GWF-(2,1,999) -0.4226212E-08                   1_GWF-(1,1,962)  0.7451633E-10
       4095      3067         1                   1_GWF-(2,1,999) -0.4223859E-08                   1_GWF-(1,1,962)  0.7450313E-10
       4096      3068         1                   1_GWF-(2,1,999) -0.4221507E-08                   1_GWF-(1,1,962)  0.7448993E-10
       4097      3069         1                   1_GWF-(2,1,999) -0.4219159E-08                   1_GWF-(1,1,962)  0.7447674E-10
       4098      3070         1                   1_GWF-(2,1,999) -0.4216811E-08                   1_GWF-(1,1,962)  0.7446356E-10
       4099      3071         1                   1_GWF-(2,1,999) -0.4214466E-08                   1_GWF-(1,1,962)  0.7445039E-10
       4100      3072         1                   1_GWF-(2,1,999) -0.4212124E-08                   1_GWF-(1,1,962)  0.7443722E-10
       4101      3073         1                   1_GWF-(2,1,999) -0.4209783E-08                   1_GWF-(1,1,962)  0.7442406E-10
       4102      3074         1                   1_GWF-(2,1,999) -0.4207444E-08                   1_GWF-(1,1,962)  0.7441091E-10
       4103      3075         1                   1_GWF-(2,1,999) -0.4205108E-08                   1_GWF-(1,1,962)  0.7439776E-10
       4104      3076         1                   1_GWF-(2,1,999) -0.4202773E-08                   1_GWF-(1,1,962)  0.7438462E-10
       4105      3077         1                   1_GWF-(2,1,999) -0.4200441E-08                   1_GWF-(1,1,962)  0.7437148E-10
       4106      3078         1                   1_GWF-(2,1,999) -0.4198111E-08                   1_GWF-(1,1,962)  0.7435835E-10
       4107      3079         1                   1_GWF-(2,1,999) -0.4195782E-08                   1_GWF-(1,1,962)  0.7434523E-10
       4108      3080         1                   1_GWF-(2,1,999) -0.4193457E-08                   1_GWF-(1,1,962)  0.7433211E-10
       4109      3081         1                   1_GWF-(2,1,999) -0.4191132E-08                   1_GWF-(1,1,962)  0.7431900E-10
       4110      3082         1                   1_GWF-(2,1,999) -0.4188810E-08                   1_GWF-(1,1,962)  0.7430590E-10
       4111      3083         1                   1_GWF-(2,1,999) -0.4186490E-08                   1_GWF-(1,1,962)  0.7429281E-10
       4112      3084         1                   1_GWF-(2,1,999) -0.4184172E-08                   1_GWF-(1,1,962)  0.7427972E-10
       4113      3085         1                   1_GWF-(2,1,999) -0.4181856E-08                   1_GWF-(1,1,962)  0.7426663E-10
       4114      3086         1                   1_GWF-(2,1,999) -0.4179542E-08                   1_GWF-(1,1,962)  0.7425356E-10
       4115      3087         1                   1_GWF-(2,1,999) -0.4177231E-08                   1_GWF-(1,1,962)  0.7424049E-10
       4116      3088         1                   1_GWF-(2,1,999) -0.4174921E-08                   1_GWF-(1,1,962)  0.7422742E-10
       4117      3089         1                   1_GWF-(2,1,999) -0.4172614E-08                   1_GWF-(1,1,962)  0.7421436E-10
       4118      3090         1                   1_GWF-(2,1,999) -0.4170308E-08                   1_GWF-(1,1,962)  0.7420131E-10
       4119      3091         1                   1_GWF-(2,1,999) -0.4168004E-08                   1_GWF-(1,1,962)  0.7418826E-10
       4120      3092         1                   1_GWF-(2,1,999) -0.4165703E-08                   1_GWF-(1,1,962)  0.7417523E-10
       4121      3093         1                   1_GWF-(2,1,999) -0.4163403E-08                   1_GWF-(1,1,962)  0.7416220E-10
       4122      3094         1                   1_GWF-(2,1,999) -0.4161106E-08                   1_GWF-(1,1,962)  0.7414917E-10
       4123      3095         1                   1_GWF-(2,1,999) -0.4158810E-08                   1_GWF-(1,1,962)  0.7413615E-10
       4124      3096         1                   1_GWF-(2,1,999) -0.4156517E-08                   1_GWF-(1,1,962)  0.7412314E-10
       4125      3097         1                   1_GWF-(2,1,999) -0.4154226E-08                   1_GWF-(1,1,962)  0.7411014E-10
       4126      3098         1                   1_GWF-(2,1,999) -0.4151937E-08                   1_GWF-(1,1,962)  0.7409714E-10
       4127      3099         1                   1_GWF-(2,1,999) -0.4149650E-08                   1_GWF-(1,1,962)  0.7408414E-10
       4128      3100         1                   1_GWF-(2,1,999) -0.4147364E-08                   1_GWF-(1,1,962)  0.7407116E-10
       4129      3101         1                   1_GWF-(2,1,999) -0.4145081E-08                   1_GWF-(1,1,962)  0.7405817E-10
       4130      3102         1                   1_GWF-(2,1,999) -0.4142799E-08                   1_GWF-(1,1,962)  0.7404520E-10
       4131      3103         1                   1_GWF-(2,1,999) -0.4140521E-08                   1_GWF-(1,1,962)  0.7403223E-10
       4132      3104         1                   1_GWF-(2,1,999) -0.4138243E-08                   1_GWF-(1,1,962)  0.7401927E-10
       4133      3105         1                   1_GWF-(2,1,999) -0.4135968E-08                   1_GWF-(1,1,962)  0.7400632E-10
       4134      3106         1                   1_GWF-(2,1,999) -0.4133695E-08                   1_GWF-(1,1,962)  0.7399337E-10
       4135      3107         1                   1_GWF-(2,1,999) -0.4131424E-08                   1_GWF-(1,1,962)  0.7398042E-10
       4136      3108         1                   1_GWF-(2,1,999) -0.4129155E-08                   1_GWF-(1,1,962)  0.7396749E-10
       4137      3109         1                   1_GWF-(2,1,999) -0.4126887E-08                   1_GWF-(1,1,962)  0.7395456E-10

 INFORMATION ON VARIABLES STORED IN THE MEMORY MANAGER
 
 Number of allocated integer variables:   30145326
 Number of allocated real variables:    20126003
 Allocated memory in megabytes:     281.589    
 

 Run end date and time (yyyy/mm/dd hh:mm:ss): 2020/06/15 12:00:07
 Elapsed run time:  4.676 Seconds

 Normal termination of simulation.
