                                   MODFLOW 6
                U.S. GEOLOGICAL SURVEY MODULAR HYDROLOGIC MODEL
                          GROUNDWATER FLOW MODEL (GWF)
                            VERSION 6.1.0 12/12/2019

   MODFLOW 6 compiled Dec 12 2019 13:30:12 with IFORT compiler (ver. 19.0.5)

This software has been approved for release by the U.S. Geological 
Survey (USGS). Although the software has been subjected to rigorous 
review, the USGS reserves the right to update the software as needed 
pursuant to further analysis and review. No warranty, expressed or 
implied, is made by the USGS or the U.S. Government as to the 
functionality of the software and related material nor shall the 
fact of release constitute any such warranty. Furthermore, the 
software is released on condition that neither the USGS nor the U.S. 
Government shall be held liable for any damages resulting from its 
authorized or unauthorized use. Also refer to the USGS Water 
Resources Software User Rights Notice for complete use, copyright, 
and distribution information.


MODFLOW was compiled using uniform precision.
Precision of REAL variables: 15


 OPENED benchmark_mf6.dis
 FILE TYPE:DIS6                   UNIT 1005   STATUS:OLD                 
 FORMAT:FORMATTED              ACCESS:SEQUENTIAL          
 ACTION:READ                


 OPENED benchmark_mf6.ic
 FILE TYPE:IC6                    UNIT 1006   STATUS:OLD                 
 FORMAT:FORMATTED              ACCESS:SEQUENTIAL          
 ACTION:READ                


 OPENED benchmark_mf6.npf
 FILE TYPE:NPF6                   UNIT 1007   STATUS:OLD                 
 FORMAT:FORMATTED              ACCESS:SEQUENTIAL          
 ACTION:READ                


 OPENED benchmark_mf6.rch
 FILE TYPE:RCH6                   UNIT 1008   STATUS:OLD                 
 FORMAT:FORMATTED              ACCESS:SEQUENTIAL          
 ACTION:READ                


 OPENED benchmark_mf6.chd
 FILE TYPE:CHD6                   UNIT 1009   STATUS:OLD                 
 FORMAT:FORMATTED              ACCESS:SEQUENTIAL          
 ACTION:READ                


 OPENED benchmark_mf6.oc
 FILE TYPE:OC6                    UNIT 1010   STATUS:OLD                 
 FORMAT:FORMATTED              ACCESS:SEQUENTIAL          
 ACTION:READ                

 NAMEFILE OPTIONS:
    NEWTON-RAPHSON method enabled for the model.
    NEWTON-RAPHSON UNDER-RELAXATION based on the bottom elevation of the model will be applied to the model.

 DIS -- STRUCTURED GRID DISCRETIZATION PACKAGE, VERSION 2 : 3/27/2014 - INPUT READ FROM UNIT 1005


 # File generated by Flopy version 3.3.2 on 12/08/2020 at 15:45:54.
 PROCESSING DISCRETIZATION OPTIONS
 END OF DISCRETIZATION OPTIONS
 MODEL LENGTH UNIT IS UNDEFINED
 PROCESSING DISCRETIZATION DIMENSIONS
    NLAY =       2
    NROW =       1
    NCOL =    1000
 END OF DISCRETIZATION DIMENSIONS
 PROCESSING GRIDDATA

                     DELR =   10.00000    

                     DELC =   1.000000    
 END PROCESSING GRIDDATA

 NPF -- NODE PROPERTY FLOW PACKAGE, VERSION 1, 3/30/2015 INPUT READ FROM UNIT 1007


 # File generated by Flopy version 3.3.2 on 12/08/2020 at 15:45:54.
 PROCESSING NPF OPTIONS
    CELL-BY-CELL FLOW INFORMATION WILL BE SAVED TO BINARY FILE WHENEVER ICBCFL IS NOT ZERO.
 END OF NPF OPTIONS

 RCH   -- RCH PACKAGE, VERSION 8, 2/22/2014 INPUT READ FROM UNIT 1008
 # File generated by Flopy version 3.3.2 on 12/08/2020 at 15:45:54.

 PROCESSING RCH OPTIONS
    RECHARGE WILL BE APPLIED TO SPECIFIED CELL.
 END OF RCH OPTIONS

 PROCESSING RCH DIMENSIONS
    MAXBOUND =    2000
 END OF RCH DIMENSIONS

 CHD   -- CHD PACKAGE, VERSION 8, 2/22/2014 INPUT READ FROM UNIT 1009
 # File generated by Flopy version 3.3.2 on 12/08/2020 at 15:45:54.

 PROCESSING CHD OPTIONS
    FLOWS WILL BE SAVED TO BUDGET FILE SPECIFIED IN OUTPUT CONTROL
 END OF CHD OPTIONS

 PROCESSING CHD DIMENSIONS
    MAXBOUND =       2
 END OF CHD DIMENSIONS

 IC -- INITIAL CONDITIONS PACKAGE, VERSION 8, 3/28/2015 INPUT READ FROM UNIT 1006
 # File generated by Flopy version 3.3.2 on 12/08/2020 at 15:45:54.
 PROCESSING GRIDDATA
 END PROCESSING GRIDDATA
 PROCESSING GRIDDATA

                ICELLTYPE = 1

                        K =  0.1000000E-02 FOR LAYER 1

                        K =  0.1000000E-04 FOR LAYER 2

                      K33 =  0.1000000E-03 FOR LAYER 1

                      K33 =  0.1000000E-05 FOR LAYER 2

                   WETDRY =  -1.000000    
 K22 not provided.  Assuming K22 = K.
 END PROCESSING GRIDDATA
    BINARY GRID INFORMATION WILL BE WRITTEN TO:
      UNIT NUMBER: 1012
      FILE NAME: F:\veeth\OneDrive - stud.uni-stuttgart.de\[kup]\[projs]\ModFlow\projs\mf5-mf6_benchmarks\scripts\mf6 benchmark\data\benchmark_mf6.dis.grb

 OPENED F:\veeth\OneDrive - stud.uni-stuttgart.de\[kup]\[projs]\ModFlow\projs\mf5-mf6_benchmarks\scripts\mf6 benchmark\data\benchmark_mf6.dis.grb
 FILE TYPE:DATA(BINARY)   UNIT 1012   STATUS:REPLACE             
 FORMAT:UNFORMATTED            ACCESS:STREAM              
 ACTION:READWRITE           

      THE LAST TIME STEP WILL BE PRINTED
      THE LAST TIME STEP WILL BE PRINTED
 # File generated by Flopy version 3.3.2 on 12/08/2020 at 15:45:54.
 PROCESSING OC OPTIONS
    BUDGET INFORMATION WILL BE WRITTEN TO:
      UNIT NUMBER: 1013
      FILE NAME: benchmark_mf6.cbb

 OPENED benchmark_mf6.cbb
 FILE TYPE:DATA(BINARY)   UNIT 1013   STATUS:REPLACE             
 FORMAT:UNFORMATTED            ACCESS:STREAM              
 ACTION:READWRITE           

    HEAD INFORMATION WILL BE WRITTEN TO:
      UNIT NUMBER: 1014
      FILE NAME: benchmark_mf6.hds

 OPENED benchmark_mf6.hds
 FILE TYPE:DATA(BINARY)   UNIT 1014   STATUS:REPLACE             
 FORMAT:UNFORMATTED            ACCESS:STREAM              
 ACTION:READWRITE           

 END OF OC OPTIONS

 BEGIN READING OUTPUT CONTROL FOR STRESS PERIOD 1
      ALL TIME STEPS WILL BE SAVED
      ALL TIME STEPS WILL BE SAVED
      THE LAST TIME STEP WILL BE PRINTED

 END READING OUTPUT CONTROL FOR STRESS PERIOD 1

 INNER ITERATION SUMMARY
 --------------------------------------------------------------------------------------------------------------------------------
     TOTAL      OUTER     INNER                    MAXIMUM CHANGE        MAXIMUM                  MAXIMUM RESIDUAL        MAXIMUM
 ITERATION  ITERATION ITERATION                    MODEL-(CELLID)         CHANGE                    MODEL-(CELLID)       RESIDUAL
 --------------------------------------------------------------------------------------------------------------------------------
          1         1         1                  1_GWF-(2,1,1000)  -3.641091                      1_GWF-(2,1,1000) -0.2991433E-06
          2         1         2                  1_GWF-(2,1,1000) -0.1705518E-01                  1_GWF-(2,1,1000)  0.1193180E-07
          3         1         3                  1_GWF-(2,1,1000)  0.6453886E-03                     1_GWF-(2,1,5) -0.1750974E-10
          4         1         4                  1_GWF-(2,1,1000) -0.4376435E-06                     1_GWF-(2,1,5)  0.6208805E-13
          5         1         5                  1_GWF-(2,1,1000)  0.8730768E-09                     1_GWF-(2,1,5)  0.3436236E-14
          6         1         6                  1_GWF-(2,1,1000)  0.3391020E-12                  1_GWF-(2,1,1000) -0.7121016E-14
          7         2         1                  1_GWF-(2,1,1000)  -12.13606                      1_GWF-(2,1,1000)  0.6806485E-03
          8         2         2                  1_GWF-(2,1,1000)  -9.101247                      1_GWF-(2,1,1000)  0.1568472E-03
          9         2         3                  1_GWF-(2,1,1000)   116.2768                      1_GWF-(2,1,1000)  0.2421432E-02
         10         2         4                  1_GWF-(2,1,1000)  -126.1170                      1_GWF-(2,1,1000)  0.1297496E-03
         11         2         5                  1_GWF-(2,1,1000)  -2.727706                      1_GWF-(2,1,1000)  0.2611727E-04
         12         2         6                  1_GWF-(2,1,1000)  -1.636110                      1_GWF-(2,1,1000)  0.1699745E-05
         13         2         7                  1_GWF-(2,1,1000) -0.9382524                      1_GWF-(2,1,1000) -0.2070029E-06
         14         2         8                  1_GWF-(2,1,1000) -0.3104203                      1_GWF-(2,1,1000) -0.4230326E-06
         15         2         9                  1_GWF-(2,1,1000) -0.2015416                      1_GWF-(2,1,1000)  0.1707597E-06
         16         2        10                  1_GWF-(2,1,1000)  0.2006656E-02                  1_GWF-(2,1,1000) -0.8700731E-06
         17         2        11                  1_GWF-(2,1,1000) -0.6106865E-01                  1_GWF-(2,1,1000) -0.2598967E-06
         18         2        12                  1_GWF-(2,1,1000) -0.5988690E-02                  1_GWF-(2,1,1000) -0.2132553E-07
         19         2        13                  1_GWF-(2,1,1000) -0.1642613E-02                  1_GWF-(2,1,1000) -0.3504070E-09
         20         2        14                  1_GWF-(2,1,1000) -0.1045259E-03                  1_GWF-(2,1,1000)  0.3180432E-10
         21         2        15                  1_GWF-(2,1,1000) -0.8374514E-05                  1_GWF-(1,1,1000) -0.1754167E-12
         22         2        16                  1_GWF-(2,1,1000) -0.9003171E-06                  1_GWF-(2,1,1000) -0.8909720E-13
         23         2        17                  1_GWF-(2,1,1000) -0.9002454E-07                  1_GWF-(2,1,1000)  0.8671704E-13
         24         2        18                  1_GWF-(2,1,1000)  0.4054748E-07                  1_GWF-(2,1,1000)  0.1238057E-13
         25         2        19                  1_GWF-(2,1,1000)  0.2666287E-12                  1_GWF-(2,1,1000)  0.1237893E-13
         26         3         1                  1_GWF-(2,1,1000)  -9.214513                      1_GWF-(2,1,1000)  0.1900112E-02
         27         3         2                  1_GWF-(2,1,1000)  -3.278335                      1_GWF-(2,1,1000)  0.1281326E-03
         28         3         3                  1_GWF-(2,1,1000)  0.5010601                      1_GWF-(2,1,1000)  0.1576498E-03
         29         3         4                  1_GWF-(2,1,1000)  -1.383769                      1_GWF-(2,1,1000)  0.2014258E-04
         30         3         5                  1_GWF-(2,1,1000) -0.4733536E-01                  1_GWF-(2,1,1000)  0.1715489E-05
         31         3         6                  1_GWF-(2,1,1000) -0.8277674E-02                  1_GWF-(2,1,1000)  0.8362059E-08
         32         3         7                  1_GWF-(2,1,1000) -0.1601493E-02                  1_GWF-(2,1,1000) -0.5118890E-08
         33         3         8                  1_GWF-(2,1,1000) -0.2142606E-03                  1_GWF-(2,1,1000) -0.1022305E-09
         34         3         9                  1_GWF-(2,1,1000)  0.2843847E-05                  1_GWF-(2,1,1000)  0.2756082E-09
         35         3        10                  1_GWF-(2,1,1000) -0.2065883E-04                  1_GWF-(2,1,1000)  0.2504414E-10
         36         3        11                  1_GWF-(2,1,1000) -0.2623937E-05                  1_GWF-(2,1,1000)  0.3884215E-11
         37         3        12                  1_GWF-(2,1,1000) -0.1927908E-06                  1_GWF-(2,1,1000)  0.2538501E-12
         38         3        13                  1_GWF-(2,1,1000) -0.4245448E-07                  1_GWF-(2,1,1000) -0.8189851E-13
         39         3        14                  1_GWF-(2,1,1000) -0.1035554E-07                  1_GWF-(2,1,1000)  0.1553312E-13
         40         3        15                  1_GWF-(2,1,1000) -0.2726570E-08                  1_GWF-(2,1,1000)  0.4209051E-13
         41         3        16                  1_GWF-(2,1,1000) -0.3495477E-09                  1_GWF-(1,1,1000)  0.4082919E-13
         42         3        17                  1_GWF-(2,1,1000) -0.9499105E-10                  1_GWF-(1,1,1000)  0.4062567E-13
         43         4         1                  1_GWF-(2,1,1000)   1.227632                      1_GWF-(1,1,1000) -0.1344338E-02
         44         4         2                  1_GWF-(2,1,1000)  0.3800119                      1_GWF-(1,1,1000)  0.3547464E-02
         45         4         3                  1_GWF-(2,1,1000)  0.6340700E-01                  1_GWF-(1,1,1000)  0.1854529E-02
         46         4         4                  1_GWF-(2,1,1000) -0.7235965E-01                  1_GWF-(1,1,1000)  0.9237997E-04
         47         4         5                  1_GWF-(2,1,1000)  0.4561443E-02                  1_GWF-(1,1,1000)  0.6729680E-04
         48         4         6                  1_GWF-(2,1,1000) -0.4181630E-01                  1_GWF-(1,1,1000) -0.1209385E-03
         49         4         7                  1_GWF-(2,1,1000) -0.2721612E-02                  1_GWF-(1,1,1000) -0.2452424E-04
         50         4         8                  1_GWF-(2,1,1000)  0.3101460E-01                  1_GWF-(1,1,1000)  0.2387321E-04
         51         4         9                  1_GWF-(2,1,1000) -0.1845805E-01                  1_GWF-(1,1,1000) -0.1771314E-05
         52         4        10                  1_GWF-(2,1,1000)  0.1033742E-02                  1_GWF-(1,1,1000)  0.8111056E-07
         53         4        11                  1_GWF-(2,1,1000)  0.1263147E-02                  1_GWF-(1,1,1000) -0.2644724E-08
         54         4        12                  1_GWF-(2,1,1000) -0.1031954E-03                  1_GWF-(1,1,1000)  0.2815701E-08
         55         4        13                  1_GWF-(2,1,1000)  0.3394443E-04                  1_GWF-(1,1,1000) -0.4976677E-09
         56         4        14                  1_GWF-(2,1,1000) -0.4901885E-04                  1_GWF-(1,1,1000) -0.1627423E-08
         57         4        15                  1_GWF-(2,1,1000)  0.3225054E-05                  1_GWF-(1,1,1000) -0.1246916E-09
         58         4        16                  1_GWF-(2,1,1000)  0.3199124E-07                  1_GWF-(1,1,1000) -0.4412932E-10
         59         4        17                  1_GWF-(2,1,1000) -0.1357427E-05                  1_GWF-(1,1,1000)  0.1181330E-11
         60         4        18                  1_GWF-(2,1,1000)  0.7382112E-07                   1_GWF-(2,1,994)  0.9444853E-14
         61         4        19                  1_GWF-(2,1,1000) -0.9399426E-10                   1_GWF-(2,1,994)  0.9739296E-14
         62         5         1                  1_GWF-(2,1,1000)  0.2179710                      1_GWF-(1,1,1000) -0.3143139E-04
         63         5         2                  1_GWF-(2,1,1000) -0.2861198E-01                  1_GWF-(1,1,1000)  0.2238432E-03
         64         5         3                  1_GWF-(2,1,1000)  0.4450577E-03                  1_GWF-(1,1,1000) -0.2139415E-04
         65         5         4                   1_GWF-(2,1,999)  0.5179546                      1_GWF-(1,1,1000)  0.3933052E-04
         66         5         5                  1_GWF-(2,1,1000)  0.2582967E-04                  1_GWF-(1,1,1000) -0.5987080E-06
         67         5         6                  1_GWF-(2,1,1000) -0.1204365E-04                  1_GWF-(1,1,1000) -0.2986822E-07
         68         5         7                  1_GWF-(2,1,1000)  0.1643400E-05                  1_GWF-(1,1,1000) -0.2471611E-09
         69         5         8                  1_GWF-(2,1,1000)  0.3802383E-06                  1_GWF-(1,1,1000) -0.3128773E-11
         70         5         9                  1_GWF-(2,1,1000)  0.2891765E-08                  1_GWF-(1,1,1000)  0.9145902E-12
         71         5        10                  1_GWF-(2,1,1000)  0.2642302E-08                  1_GWF-(2,1,1000)  0.2577953E-12
         72         5        11                  1_GWF-(2,1,1000) -0.4954606E-09                  1_GWF-(2,1,1000) -0.3138402E-12
         73         5        12                  1_GWF-(2,1,1000) -0.1135593E-10                  1_GWF-(2,1,1000) -0.2772963E-12
         74         6         1                  1_GWF-(2,1,1000)  0.4888340                      1_GWF-(2,1,1000) -0.1919933E-02
         75         6         2                  1_GWF-(2,1,1000)  0.5580213E-01                  1_GWF-(2,1,1000) -0.1664948E-04
         76         6         3                  1_GWF-(2,1,1000) -0.1805730E-01                  1_GWF-(2,1,1000) -0.1841648E-04
         77         6         4                  1_GWF-(2,1,1000)  0.3071430E-01                  1_GWF-(2,1,1000)  0.1512191E-03
         78         6         5                  1_GWF-(2,1,1000) -0.2716962E-01                  1_GWF-(2,1,1000) -0.1418564E-05
         79         6         6                  1_GWF-(2,1,1000)  0.1958612E-02                  1_GWF-(2,1,1000)  0.1346112E-05
         80         6         7                  1_GWF-(2,1,1000) -0.1149720E-02                  1_GWF-(2,1,1000)  0.1347228E-06
         81         6         8                  1_GWF-(2,1,1000)  0.3909046E-03                  1_GWF-(2,1,1000) -0.5357770E-07
         82         6         9                  1_GWF-(2,1,1000) -0.7101240E-04                  1_GWF-(2,1,1000)  0.1338314E-07
         83         6        10                  1_GWF-(2,1,1000) -0.2476692E-04                  1_GWF-(2,1,1000) -0.9700566E-09
         84         6        11                  1_GWF-(2,1,1000) -0.1696497E-05                  1_GWF-(2,1,1000) -0.1264543E-09
         85         6        12                  1_GWF-(2,1,1000)  0.4360573E-05                  1_GWF-(2,1,1000)  0.1051912E-11
         86         6        13                  1_GWF-(2,1,1000) -0.3778576E-06                   1_GWF-(2,1,155)  0.1395630E-12
         87         6        14                  1_GWF-(2,1,1000) -0.2538309E-07                   1_GWF-(2,1,990) -0.1626197E-12
         88         6        15                  1_GWF-(2,1,1000)  0.3614974E-07                   1_GWF-(2,1,992) -0.2960722E-13
         89         6        16                  1_GWF-(2,1,1000) -0.5618692E-09                  1_GWF-(1,1,1000) -0.2864356E-13
         90         6        17                  1_GWF-(2,1,1000)  0.2336643E-08                  1_GWF-(1,1,1000) -0.8309037E-13
         91         6        18                  1_GWF-(2,1,1000) -0.5092409E-09                  1_GWF-(1,1,1000) -0.5952408E-13
         92         6        19                  1_GWF-(2,1,1000)  0.3762810E-08                  1_GWF-(1,1,1000) -0.1168624E-12
         93         6        20                  1_GWF-(2,1,1000) -0.8807344E-08                  1_GWF-(1,1,1000)  0.1582458E-13
         94         6        21                  1_GWF-(2,1,1000) -0.1276966E-07                  1_GWF-(1,1,1000)  0.1150652E-12
         95         6        22                  1_GWF-(2,1,1000)  0.1401153E-07                  1_GWF-(1,1,1000)  0.1200552E-13
         96         6        23                   1_GWF-(2,1,999) -0.1877649E-10                  1_GWF-(1,1,1000)  0.1200533E-13
         97         7         1                  1_GWF-(2,1,1000)  0.4036635                      1_GWF-(1,1,1000)  0.6604239E-03
         98         7         2                  1_GWF-(2,1,1000)  0.2495527E-01                  1_GWF-(1,1,1000)  0.7250873E-05
         99         7         3                  1_GWF-(2,1,1000) -0.8627342E-02                  1_GWF-(1,1,1000)  0.6500896E-05
        100         7         4                  1_GWF-(2,1,1000)  0.2874294E-01                  1_GWF-(1,1,1000) -0.5233132E-04
        101         7         5                  1_GWF-(2,1,1000) -0.2694793E-01                  1_GWF-(1,1,1000)  0.2362672E-06
        102         7         6                  1_GWF-(2,1,1000)  0.1605451E-02                  1_GWF-(1,1,1000) -0.6854371E-07
        103         7         7                  1_GWF-(2,1,1000) -0.2448784E-03                  1_GWF-(1,1,1000) -0.1540904E-07
        104         7         8                  1_GWF-(2,1,1000)  0.4350452E-04                  1_GWF-(1,1,1000)  0.2569869E-08
        105         7         9                  1_GWF-(2,1,1000)  0.4566813E-04                  1_GWF-(1,1,1000) -0.5427404E-09
        106         7        10                  1_GWF-(2,1,1000) -0.2032199E-04                   1_GWF-(2,1,983) -0.1732513E-10
        107         7        11                  1_GWF-(2,1,1000) -0.7666501E-06                   1_GWF-(2,1,990) -0.3661844E-11
        108         7        12                  1_GWF-(2,1,1000)  0.4687253E-06                   1_GWF-(2,1,980)  0.1969725E-12
        109         7        13                  1_GWF-(2,1,1000) -0.6167574E-07                   1_GWF-(2,1,990) -0.3280525E-13
        110         7        14                  1_GWF-(2,1,1000)  0.2208605E-07                  1_GWF-(2,1,1000) -0.6103703E-13
        111         7        15                  1_GWF-(2,1,1000) -0.3711289E-08                  1_GWF-(2,1,1000) -0.4231413E-13
        112         7        16                  1_GWF-(2,1,1000)  0.6554875E-08                  1_GWF-(2,1,1000) -0.9941891E-13
        113         7        17                  1_GWF-(2,1,1000) -0.1132173E-07                  1_GWF-(2,1,1000) -0.2741893E-13
        114         7        18                  1_GWF-(2,1,1000) -0.2211889E-08                  1_GWF-(1,1,1000) -0.3116036E-13
        115         7        19                  1_GWF-(2,1,1000) -0.2370363E-08                  1_GWF-(1,1,1000) -0.3500649E-13
        116         7        20                  1_GWF-(2,1,1000) -0.4211652E-09                  1_GWF-(1,1,1000) -0.5525176E-13
        117         7        21                  1_GWF-(2,1,1000)  0.4348436E-09                  1_GWF-(1,1,1000) -0.5419639E-13
        118         7        22                  1_GWF-(2,1,1000) -0.3128500E-08                  1_GWF-(1,1,1000) -0.1172768E-12
        119         7        23                  1_GWF-(2,1,1000)  0.3209593E-08                  1_GWF-(1,1,1000) -0.1094681E-12
        120         7        24                  1_GWF-(2,1,1000) -0.9476797E-09                  1_GWF-(1,1,1000) -0.1135445E-12
        121         7        25                  1_GWF-(2,1,1000)  0.8796158E-09                  1_GWF-(1,1,1000) -0.1097232E-12
        122         7        26                  1_GWF-(2,1,1000)  0.1189138E-08                  1_GWF-(1,1,1000) -0.7778770E-13
        123         7        27                  1_GWF-(2,1,1000) -0.1141711E-08                  1_GWF-(1,1,1000) -0.8254821E-13
        124         7        28                  1_GWF-(2,1,1000) -0.9650850E-08                  1_GWF-(1,1,1000) -0.1350214E-12
        125         7        29                  1_GWF-(2,1,1000)  0.9756011E-08                  1_GWF-(1,1,1000) -0.9346816E-13
        126         7        30                  1_GWF-(2,1,1000)  0.9419397E-10                  1_GWF-(1,1,1000) -0.8262232E-13
        127         7        31                  1_GWF-(2,1,1000)  0.1861866E-10                  1_GWF-(1,1,1000) -0.8506159E-13
        128         7        32                  1_GWF-(2,1,1000)  0.4553555E-08                  1_GWF-(1,1,1000) -0.1107657E-12
        129         7        33                  1_GWF-(2,1,1000) -0.4445127E-08                  1_GWF-(1,1,1000)  0.1845739E-14
        130         7        34                  1_GWF-(2,1,1000)  0.6573797E-12                  1_GWF-(2,1,1000)  0.3197372E-13
        131         8         1                  1_GWF-(2,1,1000)   1.066331                      1_GWF-(1,1,1000)  0.1206741E-01
        132         8         2                  1_GWF-(2,1,1000)   2.956361                      1_GWF-(1,1,1000)  0.2676410E-03
        133         8         3                  1_GWF-(2,1,1000) -0.2714919                      1_GWF-(1,1,1000)  0.9934837E-04
        134         8         4                  1_GWF-(2,1,1000) -0.4854679                      1_GWF-(1,1,1000) -0.1367232E-03
        135         8         5                  1_GWF-(2,1,1000) -0.1640227E-01                  1_GWF-(1,1,1000) -0.4091703E-04
        136         8         6                  1_GWF-(2,1,1000) -0.2046259E-01                  1_GWF-(1,1,1000)  0.6994607E-05
        137         8         7                  1_GWF-(2,1,1000)  0.2229850E-02                  1_GWF-(1,1,1000)  0.5272059E-05
        138         8         8                  1_GWF-(2,1,1000) -0.3973710                      1_GWF-(1,1,1000) -0.1706495E-05
        139         8         9                  1_GWF-(2,1,1000)  0.2022797E-01                  1_GWF-(1,1,1000)  0.7597956E-05
        140         8        10                  1_GWF-(2,1,1000)  0.3064514                      1_GWF-(1,1,1000) -0.1542905E-05
        141         8        11                  1_GWF-(2,1,1000) -0.5831888                      1_GWF-(1,1,1000) -0.3178346E-06
        142         8        12                  1_GWF-(2,1,1000)  0.9431792E-01                  1_GWF-(1,1,1000)  0.6914651E-06
        143         8        13                  1_GWF-(2,1,1000)  0.1308870                       1_GWF-(2,1,249)  0.1104526E-06
        144         8        14                  1_GWF-(2,1,1000)  0.2493855                       1_GWF-(2,1,249) -0.9224507E-07
        145         8        15                  1_GWF-(2,1,1000) -0.8821389E-01                   1_GWF-(2,1,249) -0.2373011E-07
        146         8        16                  1_GWF-(2,1,1000) -0.2260736E-01                   1_GWF-(2,1,957) -0.9221703E-09
        147         8        17                  1_GWF-(2,1,1000)  0.4806411E-03                   1_GWF-(2,1,245) -0.1353519E-09
        148         8        18                  1_GWF-(2,1,1000) -0.1250604E-03                   1_GWF-(2,1,952)  0.3257263E-10
        149         8        19                  1_GWF-(2,1,1000)  0.2453111E-03                   1_GWF-(2,1,249) -0.1526497E-09
        150         8        20                  1_GWF-(2,1,1000) -0.2026665E-03                   1_GWF-(2,1,235) -0.4582029E-12
        151         8        21                  1_GWF-(2,1,1000) -0.1563822E-06                   1_GWF-(2,1,247) -0.3091622E-12
        152         8        22                  1_GWF-(2,1,1000) -0.2555594E-06                   1_GWF-(2,1,957)  0.6527496E-13
        153         8        23                  1_GWF-(2,1,1000)  0.7384989E-08                   1_GWF-(2,1,957) -0.5922955E-13
        154         8        24                  1_GWF-(2,1,1000)  0.1090390E-07                  1_GWF-(1,1,1000) -0.1206800E-13
        155         8        25                  1_GWF-(2,1,1000)  0.3029836E-10                  1_GWF-(1,1,1000) -0.1166983E-13
        156         8        26                  1_GWF-(2,1,1000) -0.4034795E-09                  1_GWF-(2,1,1000)  0.3190118E-13
        157         8        27                  1_GWF-(2,1,1000)  0.8511562E-09                  1_GWF-(2,1,1000)  0.3222158E-13
        158         8        28                  1_GWF-(2,1,1000)  0.4991067E-08                  1_GWF-(1,1,1000)  0.1017746E-12
        159         8        29                  1_GWF-(2,1,1000) -0.5437697E-08                  1_GWF-(1,1,1000)  0.4660036E-13
        160         8        30                  1_GWF-(2,1,1000)  0.9417029E-10                  1_GWF-(2,1,1000)  0.3329807E-13
        161         8        31                  1_GWF-(2,1,1000) -0.2506102E-10                  1_GWF-(2,1,1000)  0.3169916E-13
        162         8        32                  1_GWF-(2,1,1000) -0.1482989E-08                  1_GWF-(2,1,1000) -0.9411695E-13
        163         8        33                  1_GWF-(2,1,1000)  0.1370893E-08                  1_GWF-(1,1,1000)  0.2300682E-13
        164         8        34                  1_GWF-(2,1,1000) -0.1102079E-09                  1_GWF-(1,1,1000)  0.2178428E-13
        165         8        35                  1_GWF-(2,1,1000)  0.1934259E-09                  1_GWF-(1,1,1000)  0.2974184E-13
        166         8        36                  1_GWF-(2,1,1000)  0.1168972E-09                  1_GWF-(2,1,1000)  0.4244712E-13
        167         8        37                  1_GWF-(2,1,1000) -0.1064893E-09                  1_GWF-(2,1,1000)  0.3470546E-13
        168         8        38                  1_GWF-(2,1,1000) -0.2012559E-08                  1_GWF-(2,1,1000) -0.1319513E-12
        169         8        39                  1_GWF-(2,1,1000)  0.1990996E-08                  1_GWF-(1,1,1000)  0.2683181E-13
        170         8        40                  1_GWF-(2,1,1000)  0.1101728E-09                  1_GWF-(2,1,1000)  0.4128331E-13
        171         8        41                  1_GWF-(2,1,1000) -0.2268370E-09                  1_GWF-(2,1,1000)  0.2612558E-13
        172         8        42                  1_GWF-(2,1,1000) -0.8700132E-08                  1_GWF-(2,1,1000) -0.3271342E-12
        173         8        43                  1_GWF-(2,1,1000)  0.8432448E-08                  1_GWF-(2,1,1000)  0.7452240E-14
        174         8        44                  1_GWF-(2,1,1000)  0.1294357E-09                  1_GWF-(1,1,1000)  0.2869500E-13
        175         8        45                  1_GWF-(2,1,1000) -0.2925568E-09                  1_GWF-(2,1,1000) -0.2004635E-13
        176         8        46                  1_GWF-(2,1,1000) -0.2149652E-07                  1_GWF-(1,1,1000) -0.2740117E-12
        177         8        47                  1_GWF-(2,1,1000)  0.2101956E-07                  1_GWF-(1,1,1000)  0.1113304E-13
        178         8        48                  1_GWF-(2,1,1000)  0.1364657E-09                  1_GWF-(2,1,1000)  0.5408048E-14
        179         8        49                  1_GWF-(2,1,1000) -0.1137229E-11                  1_GWF-(2,1,1000)  0.5393780E-14
        180         9         1                  1_GWF-(2,1,1000)  0.5787511E-01                  1_GWF-(1,1,1000)  0.8240227E-04
        181         9         2                  1_GWF-(2,1,1000) -0.1112691E-02                  1_GWF-(1,1,1000) -0.1732971E-05
        182         9         3                  1_GWF-(2,1,1000)  0.2290536E-03                  1_GWF-(1,1,1000)  0.1239158E-06
        183         9         4                  1_GWF-(2,1,1000) -0.1826202E-04                  1_GWF-(1,1,1000) -0.2764229E-08
        184         9         5                  1_GWF-(2,1,1000)  0.7386050E-07                  1_GWF-(1,1,1000)  0.1062651E-08
        185         9         6                  1_GWF-(2,1,1000) -0.4690243E-07                  1_GWF-(1,1,1000) -0.1164475E-10
        186         9         7                  1_GWF-(2,1,1000)  0.1748805E-08                  1_GWF-(1,1,1000)  0.1557089E-11
        187         9         8                  1_GWF-(2,1,1000)  0.1390805E-09                  1_GWF-(1,1,1000) -0.9572739E-13
        188         9         9                  1_GWF-(2,1,1000)  0.4174876E-10                  1_GWF-(1,1,1000)  0.6999102E-13
        189         9        10                  1_GWF-(2,1,1000) -0.8112979E-13                  1_GWF-(1,1,1000)  0.6257541E-13
        190        10         1                  1_GWF-(2,1,1000)  0.2459514                      1_GWF-(1,1,1000) -0.1657241E-03
        191        10         2                  1_GWF-(2,1,1000) -0.2303094E-01                  1_GWF-(1,1,1000) -0.8391408E-06
        192        10         3                  1_GWF-(2,1,1000)  0.4965572E-02                  1_GWF-(1,1,1000)  0.1157849E-06
        193        10         4                  1_GWF-(2,1,1000)  0.8766937E-03                  1_GWF-(1,1,1000) -0.3113030E-08
        194        10         5                  1_GWF-(2,1,1000) -0.1049624E-05                   1_GWF-(2,1,457)  0.7656547E-09
        195        10         6                  1_GWF-(2,1,1000) -0.2173000E-04                   1_GWF-(2,1,371)  0.1550281E-08
        196        10         7                  1_GWF-(2,1,1000)  0.2697947E-04                   1_GWF-(2,1,985) -0.1125127E-09
        197        10         8                  1_GWF-(2,1,1000) -0.8159369E-05                   1_GWF-(2,1,987) -0.1908989E-09
        198        10         9                  1_GWF-(2,1,1000)  0.6194370E-05                   1_GWF-(2,1,987) -0.3464672E-11
        199        10        10                  1_GWF-(2,1,1000)  0.1126878E-06                   1_GWF-(2,1,987) -0.5689780E-12
        200        10        11                  1_GWF-(2,1,1000)  0.2834147E-09                   1_GWF-(2,1,985)  0.5364012E-12
        201        10        12                  1_GWF-(2,1,1000)  0.2381299E-07                  1_GWF-(1,1,1000) -0.4486643E-13
        202        10        13                  1_GWF-(2,1,1000)  0.2224316E-08                   1_GWF-(2,1,985) -0.4208094E-14
        203        10        14                  1_GWF-(2,1,1000) -0.6190053E-10                  1_GWF-(2,1,1000) -0.3573877E-13
        204        10        15                  1_GWF-(2,1,1000)  0.8761947E-10                  1_GWF-(2,1,1000) -0.3424886E-13
        205        10        16                  1_GWF-(2,1,1000) -0.4504880E-09                  1_GWF-(2,1,1000) -0.4293938E-13
        206        10        17                  1_GWF-(2,1,1000)  0.4534587E-09                  1_GWF-(2,1,1000) -0.3532005E-13
        207        10        18                  1_GWF-(2,1,1000)  0.1222936E-08                  1_GWF-(1,1,1000)  0.7253826E-13
        208        10        19                  1_GWF-(2,1,1000) -0.1239583E-08                  1_GWF-(1,1,1000)  0.5222912E-13
        209        10        20                  1_GWF-(2,1,1000) -0.2304113E-09                  1_GWF-(2,1,1000) -0.3930362E-13
        210        10        21                  1_GWF-(2,1,1000)  0.2311600E-09                  1_GWF-(2,1,1000) -0.3481567E-13
        211        10        22                  1_GWF-(2,1,1000)  0.3143850E-08                  1_GWF-(1,1,1000)  0.4505751E-13
        212        10        23                  1_GWF-(2,1,1000) -0.3190314E-08                  1_GWF-(2,1,1000) -0.3252461E-13
        213        10        24                  1_GWF-(2,1,1000) -0.1013331E-10                  1_GWF-(2,1,1000) -0.3567089E-13
        214        11         1                  1_GWF-(2,1,1000)  0.2821655                      1_GWF-(2,1,1000) -0.3141692E-03
        215        11         2                  1_GWF-(2,1,1000) -0.1084361E-01                   1_GWF-(2,1,225) -0.7537406E-07
        216        11         3                  1_GWF-(2,1,1000)  0.3930935E-02                  1_GWF-(2,1,1000) -0.9327834E-07
        217        11         4                  1_GWF-(2,1,1000)  0.1644164E-03                  1_GWF-(2,1,1000) -0.1186210E-06
        218        11         5                  1_GWF-(2,1,1000) -0.3834151E-03                  1_GWF-(2,1,1000) -0.8633682E-08
        219        11         6                  1_GWF-(2,1,1000) -0.5908074E-04                   1_GWF-(2,1,281)  0.1790743E-09
        220        11         7                  1_GWF-(2,1,1000) -0.1921745E-05                   1_GWF-(2,1,119) -0.9327830E-09
        221        11         8                  1_GWF-(2,1,1000)  0.7199749E-05                   1_GWF-(2,1,265) -0.4295980E-10
        222        11         9                  1_GWF-(2,1,1000)  0.6411521E-06                   1_GWF-(2,1,987)  0.2696182E-10
        223        11        10                  1_GWF-(2,1,1000) -0.1691307E-05                   1_GWF-(2,1,279) -0.9904395E-12
        224        11        11                  1_GWF-(2,1,1000)  0.1997071E-07                   1_GWF-(2,1,291)  0.1594048E-12
        225        11        12                  1_GWF-(2,1,1000) -0.2866996E-08                   1_GWF-(2,1,281)  0.6109667E-13
        226        11        13                  1_GWF-(2,1,1000)  0.3100244E-10                   1_GWF-(2,1,281)  0.6733283E-13
        227        11        14                  1_GWF-(2,1,1000)  0.5201805E-09                  1_GWF-(1,1,1000)  0.5851916E-13
        228        11        15                  1_GWF-(2,1,1000)  0.2249143E-11                  1_GWF-(1,1,1000)  0.5780870E-13
        229        12         1                  1_GWF-(2,1,1000)  0.2564919                      1_GWF-(2,1,1000) -0.2693127E-03
        230        12         2                  1_GWF-(2,1,1000) -0.5979125E-02                  1_GWF-(2,1,1000) -0.8307265E-07
        231        12         3                  1_GWF-(2,1,1000)  0.2667179E-02                   1_GWF-(2,1,159) -0.1150031E-07
        232        12         4                  1_GWF-(2,1,1000) -0.3281756E-03                   1_GWF-(2,1,159)  0.2842677E-08
        233        12         5                  1_GWF-(2,1,1000)  0.7718224E-04                   1_GWF-(2,1,233) -0.4104200E-09
        234        12         6                  1_GWF-(2,1,1000) -0.7788804E-06                   1_GWF-(2,1,273)  0.7019041E-10
        235        12         7                  1_GWF-(2,1,1000) -0.6831797E-05                   1_GWF-(2,1,985)  0.7817820E-10
        236        12         8                  1_GWF-(2,1,1000)  0.2930450E-05                   1_GWF-(2,1,985) -0.1249507E-11
        237        12         9                  1_GWF-(2,1,1000)  0.3383616E-08                   1_GWF-(2,1,985) -0.2047709E-12
        238        12        10                  1_GWF-(2,1,1000) -0.2023882E-07                   1_GWF-(2,1,265)  0.4172685E-13
        239        12        11                  1_GWF-(2,1,1000)  0.1802936E-08                   1_GWF-(2,1,305) -0.2236954E-13
        240        12        12                  1_GWF-(2,1,1000)  0.8907687E-09                  1_GWF-(1,1,1000) -0.6187750E-13
        241        12        13                  1_GWF-(2,1,1000) -0.7152062E-09                  1_GWF-(1,1,1000)  0.3025249E-13
        242        12        14                  1_GWF-(2,1,1000)  0.1780828E-09                  1_GWF-(2,1,1000) -0.2964007E-13
        243        12        15                  1_GWF-(2,1,1000) -0.1466998E-09                  1_GWF-(2,1,1000) -0.2751762E-13
        244        12        16                  1_GWF-(2,1,1000)  0.8160663E-11                    1_GWF-(2,1,49)  0.1637706E-13
        245        12        17                  1_GWF-(2,1,1000)  0.3140094E-10                    1_GWF-(2,1,49)  0.1571968E-13
        246        12        18                  1_GWF-(2,1,1000)  0.2839944E-10                  1_GWF-(1,1,1000)  0.2007373E-13
        247        12        19                  1_GWF-(2,1,1000) -0.4256435E-10                  1_GWF-(1,1,1000)  0.1866035E-13
        248        12        20                  1_GWF-(2,1,1000)  0.1261386E-09                  1_GWF-(1,1,1000) -0.3257356E-13
        249        12        21                  1_GWF-(2,1,1000) -0.1273733E-09                  1_GWF-(1,1,1000) -0.2802358E-13
        250        12        22                  1_GWF-(2,1,1000) -0.6269939E-10                  1_GWF-(2,1,1000) -0.2866853E-13
        251        12        23                  1_GWF-(2,1,1000)  0.1179280E-09                  1_GWF-(2,1,1000) -0.2639458E-13
        252        12        24                  1_GWF-(2,1,1000)  0.6631050E-10                  1_GWF-(2,1,1000) -0.3067266E-13
        253        12        25                  1_GWF-(2,1,1000) -0.6112950E-10                  1_GWF-(2,1,1000) -0.2577261E-13
        254        12        26                  1_GWF-(2,1,1000) -0.7815312E-10                  1_GWF-(2,1,1000) -0.2550010E-13
        255        12        27                  1_GWF-(2,1,1000)  0.8445122E-10                  1_GWF-(2,1,1000) -0.2534270E-13
        256        12        28                  1_GWF-(2,1,1000)  0.1638790E-09                  1_GWF-(2,1,1000) -0.3412767E-13
        257        12        29                  1_GWF-(2,1,1000) -0.1982771E-09                  1_GWF-(2,1,1000) -0.2582356E-13
        258        12        30                  1_GWF-(2,1,1000)  0.1060711E-10                    1_GWF-(2,1,49)  0.1476071E-13
        259        12        31                  1_GWF-(2,1,1000)  0.1157868E-10                    1_GWF-(2,1,49)  0.1450336E-13
        260        12        32                  1_GWF-(2,1,1000)  0.2050385E-09                  1_GWF-(2,1,1000) -0.5531348E-13
        261        12        33                  1_GWF-(2,1,1000) -0.2173607E-09                  1_GWF-(2,1,1000) -0.5257303E-13
        262        12        34                  1_GWF-(2,1,1000) -0.1062204E-10                  1_GWF-(2,1,1000) -0.3087269E-13
        263        12        35                  1_GWF-(2,1,1000)  0.6983276E-10                  1_GWF-(2,1,1000)  0.2081681E-13
        264        12        36                  1_GWF-(2,1,1000)  0.1805166E-08                  1_GWF-(2,1,1000)  0.1521748E-11
        265        12        37                  1_GWF-(2,1,1000) -0.2761384E-09                  1_GWF-(2,1,1000)  0.1257069E-11
        266        12        38                  1_GWF-(2,1,1000) -0.1332293E-08                  1_GWF-(2,1,1000)  0.1396627E-12
        267        12        39                  1_GWF-(2,1,1000) -0.3543351E-09                  1_GWF-(2,1,1000) -0.2050196E-12
        268        12        40                  1_GWF-(2,1,1000)  0.2666252E-09                  1_GWF-(2,1,1000)  0.1484526E-13
        269        12        41                  1_GWF-(2,1,1000) -0.3679309E-09                  1_GWF-(2,1,1000) -0.3475133E-12
        270        12        42                  1_GWF-(2,1,1000)  0.3137857E-09                  1_GWF-(2,1,1000) -0.4923846E-13
        271        12        43                  1_GWF-(2,1,1000) -0.3161764E-09                  1_GWF-(2,1,1000) -0.3667877E-12
        272        12        44                  1_GWF-(2,1,1000) -0.1044996E-09                  1_GWF-(2,1,1000) -0.4851334E-12
        273        12        45                  1_GWF-(2,1,1000)  0.2725171E-09                  1_GWF-(2,1,1000) -0.2271256E-12
        274        12        46                  1_GWF-(2,1,1000)  0.2112653E-10                  1_GWF-(2,1,1000) -0.1884885E-12
        275        12        47                  1_GWF-(2,1,1000) -0.1809246E-10                  1_GWF-(2,1,1000) -0.2235691E-12
        276        13         1                  1_GWF-(2,1,1000)  0.5828462                      1_GWF-(2,1,1000) -0.1641742E-02
        277        13         2                  1_GWF-(2,1,1000)  0.2915408                      1_GWF-(2,1,1000)  0.1046021E-03
        278        13         3                  1_GWF-(2,1,1000) -0.3414831E-01                  1_GWF-(2,1,1000)  0.7168518E-04
        279        13         4                  1_GWF-(2,1,1000) -0.1008885E-01                  1_GWF-(2,1,1000) -0.3390078E-05
        280        13         5                  1_GWF-(2,1,1000)  0.3826673E-02                  1_GWF-(2,1,1000)  0.6789839E-07
        281        13         6                  1_GWF-(2,1,1000)  0.1886608E-02                  1_GWF-(2,1,1000) -0.2785708E-08
        282        13         7                  1_GWF-(2,1,1000) -0.1703642E-02                   1_GWF-(2,1,986) -0.3438680E-08
        283        13         8                  1_GWF-(2,1,1000)  0.2452844E-02                   1_GWF-(2,1,987) -0.1874531E-09
        284        13         9                  1_GWF-(2,1,1000)  0.2129271E-03                   1_GWF-(2,1,989) -0.5739446E-10
        285        13        10                  1_GWF-(2,1,1000)  0.3514282E-04                  1_GWF-(2,1,1000) -0.6070051E-10
        286        13        11                  1_GWF-(2,1,1000)  0.1178381E-04                   1_GWF-(2,1,987) -0.4696429E-10
        287        13        12                  1_GWF-(2,1,1000)  0.1075920E-04                   1_GWF-(2,1,989) -0.3815828E-10
        288        13        13                  1_GWF-(2,1,1000)  0.7210608E-04                   1_GWF-(2,1,988) -0.6513716E-12
        289        13        14                  1_GWF-(2,1,1000)  0.3269278E-07                   1_GWF-(2,1,984) -0.2304922E-12
        290        13        15                  1_GWF-(2,1,1000)  0.4468092E-06                   1_GWF-(2,1,990) -0.5902857E-13
        291        13        16                  1_GWF-(2,1,1000)  0.6466491E-07                   1_GWF-(2,1,987)  0.7112576E-14
        292        13        17                  1_GWF-(2,1,1000) -0.6721742E-12                   1_GWF-(2,1,987)  0.7098679E-14
        293        14         1                  1_GWF-(2,1,1000)  0.4678840                      1_GWF-(2,1,1000) -0.6852970E-03
        294        14         2                  1_GWF-(2,1,1000)  0.3351797                      1_GWF-(2,1,1000)  0.4401402E-04
        295        14         3                  1_GWF-(2,1,1000)  0.2714033E-01                  1_GWF-(2,1,1000)  0.1312628E-04
        296        14         4                  1_GWF-(2,1,1000)  0.3652239E-01                  1_GWF-(2,1,1000) -0.1918649E-06
        297        14         5                  1_GWF-(2,1,1000)  0.4606932E-01                  1_GWF-(2,1,1000)  0.4504013E-06
        298        14         6                  1_GWF-(2,1,1000) -0.9156772E-02                  1_GWF-(2,1,1000)  0.7546134E-06
        299        14         7                  1_GWF-(2,1,1000)  0.9773554E-02                  1_GWF-(2,1,1000)  0.3743486E-07
        300        14         8                  1_GWF-(2,1,1000)  0.1786685E-01                   1_GWF-(2,1,991) -0.7069502E-09
        301        14         9                  1_GWF-(2,1,1000)  0.4460614E-03                   1_GWF-(2,1,994) -0.6658018E-09
        302        14        10                  1_GWF-(2,1,1000)  0.2003638E-02                   1_GWF-(2,1,991) -0.2440842E-09
        303        14        11                  1_GWF-(2,1,1000)  0.1017727E-03                   1_GWF-(2,1,986) -0.1729589E-09
        304        14        12                  1_GWF-(2,1,1000)  0.9538881E-03                   1_GWF-(2,1,991)  0.8867225E-10
        305        14        13                  1_GWF-(2,1,1000)  0.8478372E-04                   1_GWF-(2,1,988)  0.1008191E-09
        306        14        14                  1_GWF-(2,1,1000) -0.3823562E-03                   1_GWF-(2,1,994) -0.6933053E-12
        307        14        15                  1_GWF-(2,1,1000)  0.2380190E-05                   1_GWF-(2,1,177) -0.4692158E-13
        308        14        16                  1_GWF-(2,1,1000) -0.4998794E-07                   1_GWF-(2,1,171) -0.3239927E-13
        309        14        17                  1_GWF-(2,1,1000)  0.3482641E-06                   1_GWF-(2,1,165)  0.1189871E-12
        310        14        18                  1_GWF-(2,1,1000) -0.2435689E-06                  1_GWF-(1,1,1000) -0.4109338E-13
        311        14        19                  1_GWF-(2,1,1000) -0.3774474E-07                  1_GWF-(1,1,1000) -0.3459495E-13
        312        14        20                  1_GWF-(2,1,1000)  0.6058544E-08                  1_GWF-(1,1,1000) -0.3766079E-13
        313        14        21                  1_GWF-(2,1,1000) -0.6266214E-08                  1_GWF-(1,1,1000) -0.3558893E-13
        314        14        22                  1_GWF-(2,1,1000)  0.1047068E-06                   1_GWF-(2,1,165)  0.4256948E-13
        315        14        23                  1_GWF-(2,1,1000) -0.1052806E-06                  1_GWF-(2,1,1000) -0.1384853E-13
        316        14        24                  1_GWF-(2,1,1000) -0.7606273E-09                  1_GWF-(2,1,1000) -0.4598372E-13
        317        14        25                  1_GWF-(2,1,1000) -0.1297896E-09                  1_GWF-(2,1,1000) -0.4688121E-13
        318        15         1                  1_GWF-(2,1,1000)  0.6944793E-01                  1_GWF-(2,1,1000) -0.1262174E-05
        319        15         2                  1_GWF-(2,1,1000)  0.4075265E-01                  1_GWF-(2,1,1000)  0.4304694E-07
        320        15         3                  1_GWF-(2,1,1000) -0.3699768E-02                  1_GWF-(2,1,1000)  0.9112210E-08
        321        15         4                  1_GWF-(2,1,1000)  0.6605919E-02                  1_GWF-(2,1,1000)  0.4090833E-08
        322        15         5                  1_GWF-(2,1,1000)  0.1746076E-02                   1_GWF-(2,1,193) -0.3555563E-08
        323        15         6                  1_GWF-(2,1,1000)  0.4111330E-03                   1_GWF-(2,1,161) -0.3078603E-08
        324        15         7                  1_GWF-(2,1,1000) -0.9962971E-03                   1_GWF-(2,1,197) -0.1001010E-08
        325        15         8                  1_GWF-(2,1,1000) -0.1389186E-02                   1_GWF-(2,1,185) -0.2405600E-08
        326        15         9                  1_GWF-(2,1,1000)  0.3034365E-02                   1_GWF-(2,1,227) -0.1288280E-09
        327        15        10                  1_GWF-(2,1,1000) -0.3075951E-04                   1_GWF-(2,1,169) -0.1285680E-09
        328        15        11                  1_GWF-(2,1,1000)  0.1293662E-03                   1_GWF-(2,1,209) -0.6782663E-11
        329        15        12                  1_GWF-(2,1,1000)  0.9409886E-05                   1_GWF-(2,1,151) -0.1643706E-11
        330        15        13                  1_GWF-(2,1,1000)  0.2471167E-05                   1_GWF-(2,1,179)  0.2424597E-11
        331        15        14                  1_GWF-(2,1,1000) -0.2335417E-05                   1_GWF-(2,1,183)  0.1029095E-12
        332        15        15                  1_GWF-(2,1,1000) -0.1156921E-06                   1_GWF-(2,1,995)  0.1495143E-13
        333        15        16                  1_GWF-(2,1,1000) -0.9753442E-10                   1_GWF-(2,1,995)  0.1469466E-13
        334        16         1                  1_GWF-(2,1,1000)  0.1921146E-02                  1_GWF-(2,1,1000) -0.7964777E-08
        335        16         2                  1_GWF-(2,1,1000)  0.1444119E-02                  1_GWF-(2,1,1000)  0.4330294E-09
        336        16         3                  1_GWF-(2,1,1000)  0.1174924E-03                  1_GWF-(2,1,1000) -0.2496729E-09
        337        16         4                  1_GWF-(2,1,1000) -0.6524251E-04                  1_GWF-(2,1,1000)  0.2923230E-09
        338        16         5                  1_GWF-(2,1,1000) -0.2507438E-04                   1_GWF-(2,1,219)  0.1650067E-09
        339        16         6                  1_GWF-(2,1,1000)  0.2141622E-04                   1_GWF-(2,1,101)  0.1632860E-09
        340        16         7                  1_GWF-(2,1,1000)  0.6317246E-05                   1_GWF-(2,1,187) -0.6544184E-10
        341        16         8                  1_GWF-(2,1,1000)  0.1182976E-05                   1_GWF-(2,1,173) -0.1011643E-09
        342        16         9                  1_GWF-(2,1,1000) -0.4890876E-05                   1_GWF-(2,1,173) -0.7404461E-11
        343        16        10                  1_GWF-(2,1,1000) -0.7917628E-06                   1_GWF-(2,1,217)  0.2034295E-11
        344        16        11                  1_GWF-(2,1,1000) -0.1505292E-06                   1_GWF-(2,1,175)  0.1397630E-11
        345        16        12                  1_GWF-(2,1,1000) -0.1982124E-06                   1_GWF-(2,1,175)  0.6146478E-12
        346        16        13                  1_GWF-(2,1,1000) -0.1623297E-06                   1_GWF-(2,1,181)  0.1396688E-12
        347        16        14                  1_GWF-(2,1,1000) -0.2227500E-06                   1_GWF-(2,1,173) -0.1194150E-11
        348        16        15                  1_GWF-(2,1,1000) -0.1829706E-05                   1_GWF-(2,1,145) -0.1000487E-10
        349        16        16                  1_GWF-(2,1,1000)  0.2021237E-05                  1_GWF-(1,1,1000)  0.2439919E-13
        350        16        17                  1_GWF-(2,1,1000)  0.2982035E-11                  1_GWF-(1,1,1000)  0.2451409E-13
        351        17         1                  1_GWF-(2,1,1000) -0.3992644E-04                   1_GWF-(2,1,991)  0.7626417E-09
        352        17         2                  1_GWF-(2,1,1000)  0.2885893E-03                   1_GWF-(2,1,995)  0.6700946E-09
        353        17         3                  1_GWF-(2,1,1000) -0.1714726E-02                   1_GWF-(2,1,995)  0.1170758E-09
        354        17         4                  1_GWF-(2,1,1000) -0.3419359E-03                   1_GWF-(2,1,319)  0.3388834E-10
        355        17         5                  1_GWF-(2,1,1000) -0.1353399E-04                   1_GWF-(2,1,253)  0.2487324E-10
        356        17         6                  1_GWF-(2,1,1000)  0.1790285E-05                   1_GWF-(2,1,143)  0.5335216E-10
        357        17         7                  1_GWF-(2,1,1000)  0.3574246E-05                   1_GWF-(2,1,173)  0.1494219E-10
        358        17         8                  1_GWF-(2,1,1000)  0.4525688E-05                   1_GWF-(2,1,203)  0.1072968E-10
        359        17         9                  1_GWF-(2,1,1000) -0.3364451E-05                   1_GWF-(2,1,197)  0.1956706E-10
        360        17        10                  1_GWF-(2,1,1000)  0.5010650E-05                   1_GWF-(2,1,189)  0.5309804E-11
        361        17        11                  1_GWF-(2,1,1000) -0.1593319E-07                    1_GWF-(2,1,27)  0.4088944E-12
        362        17        12                  1_GWF-(2,1,1000) -0.2462623E-06                    1_GWF-(2,1,27)  0.2207464E-12
        363        17        13                  1_GWF-(2,1,1000)  0.3162379E-06                   1_GWF-(2,1,119) -0.5524515E-12
        364        17        14                  1_GWF-(2,1,1000) -0.4674187E-06                    1_GWF-(2,1,27)  0.9854481E-13
        365        17        15                  1_GWF-(2,1,1000)  0.5511329E-07                    1_GWF-(2,1,27)  0.1499518E-12
        366        17        16                  1_GWF-(2,1,1000) -0.1633534E-06                  1_GWF-(1,1,1000) -0.2170072E-13
        367        17        17                  1_GWF-(2,1,1000) -0.3822423E-08                  1_GWF-(1,1,1000) -0.2091211E-13
        368        17        18                  1_GWF-(2,1,1000)  0.2536552E-08                  1_GWF-(1,1,1000) -0.7941144E-13
        369        17        19                  1_GWF-(2,1,1000)  0.8624906E-10                  1_GWF-(1,1,1000) -0.7898956E-13
        370        17        20                  1_GWF-(2,1,1000)  0.8309021E-08                  1_GWF-(1,1,1000) -0.2381343E-13
        371        17        21                  1_GWF-(2,1,1000)  0.3094597E-10                  1_GWF-(1,1,1000) -0.2370512E-13
        372        18         1                  1_GWF-(2,1,1000) -0.7069314E-05                   1_GWF-(2,1,991)  0.1128913E-09
        373        18         2                  1_GWF-(2,1,1000) -0.1598349E-03                   1_GWF-(2,1,993) -0.4395908E-10
        374        18         3                  1_GWF-(2,1,1000) -0.2522864E-04                   1_GWF-(2,1,993)  0.2585404E-10
        375        18         4                  1_GWF-(2,1,1000) -0.4750581E-04                   1_GWF-(2,1,333)  0.3882150E-11
        376        18         5                  1_GWF-(2,1,1000) -0.1714172E-05                   1_GWF-(2,1,279)  0.2765279E-11
        377        18         6                  1_GWF-(2,1,1000)  0.6764624E-07                   1_GWF-(2,1,231)  0.2108339E-11
        378        18         7                  1_GWF-(2,1,1000) -0.6519923E-09                   1_GWF-(2,1,161)  0.1650610E-11
        379        18         8                  1_GWF-(2,1,1000)  0.4282206E-09                   1_GWF-(2,1,131)  0.1473236E-11
        380        18         9                  1_GWF-(2,1,1000)  0.2516807E-08                    1_GWF-(2,1,69)  0.9877956E-12
        381        18        10                  1_GWF-(2,1,1000) -0.1266217E-07                    1_GWF-(2,1,59)  0.1080845E-10
        382        18        11                  1_GWF-(2,1,1000)  0.1394721E-07                   1_GWF-(2,1,143)  0.1133204E-12
        383        18        12                  1_GWF-(2,1,1000) -0.1682823E-09                   1_GWF-(2,1,105)  0.1132627E-12
        384        18        13                  1_GWF-(2,1,1000) -0.1062868E-10                   1_GWF-(2,1,101)  0.1141688E-12
        385        18        14                  1_GWF-(2,1,1000) -0.3382655E-11                    1_GWF-(2,1,99)  0.8799564E-13
        386        18        15                  1_GWF-(2,1,1000) -0.1655698E-10                    1_GWF-(2,1,87)  0.4042714E-13
        387        18        16                  1_GWF-(2,1,1000) -0.1324777E-10                  1_GWF-(1,1,1000)  0.5379696E-13
        388        18        17                  1_GWF-(2,1,1000) -0.3694086E-11                  1_GWF-(1,1,1000)  0.5051450E-13
        389        18        18                  1_GWF-(2,1,1000) -0.7935732E-11                  1_GWF-(1,1,1000)  0.5382942E-13
        390        18        19                  1_GWF-(2,1,1000) -0.8262703E-12                  1_GWF-(1,1,1000)  0.5254307E-13
        391        18        20                  1_GWF-(2,1,1000)  0.6737190E-12                  1_GWF-(2,1,1000) -0.3299959E-13
        392        18        21                  1_GWF-(2,1,1000) -0.3690107E-12                  1_GWF-(2,1,1000) -0.3065580E-13
        393        18        22                  1_GWF-(2,1,1000) -0.9781681E-11                  1_GWF-(2,1,1000) -0.4431113E-13
        394        18        23                  1_GWF-(2,1,1000) -0.1010113E-11                  1_GWF-(2,1,1000) -0.4372870E-13
        395        18        24                  1_GWF-(2,1,1000)  0.6486324E-11                  1_GWF-(2,1,1000) -0.9736449E-13
        396        18        25                  1_GWF-(2,1,1000) -0.5201712E-12                  1_GWF-(1,1,1000) -0.1211625E-12
        397        18        26                  1_GWF-(2,1,1000) -0.4405101E-11                  1_GWF-(2,1,1000) -0.5575489E-13
        398        18        27                  1_GWF-(2,1,1000) -0.4906172E-11                  1_GWF-(2,1,1000) -0.3296340E-13
        399        18        28                  1_GWF-(2,1,1000) -0.6778139E-11                  1_GWF-(2,1,1000) -0.5929534E-13
        400        18        29                  1_GWF-(2,1,1000) -0.2150182E-11                  1_GWF-(2,1,1000) -0.5096368E-13
        401        18        30                  1_GWF-(2,1,1000) -0.4109467E-11                  1_GWF-(1,1,1000)  0.5129613E-13
        402        18        31                  1_GWF-(2,1,1000) -0.7050202E-12                  1_GWF-(1,1,1000)  0.5071878E-13
        403        18        32                  1_GWF-(2,1,1000) -0.2319622E-10                  1_GWF-(1,1,1000)  0.8514294E-13
        404        18        33                  1_GWF-(2,1,1000) -0.1464308E-11                  1_GWF-(1,1,1000)  0.8427890E-13
        405        18        34                  1_GWF-(2,1,1000) -0.1725491E-10                  1_GWF-(1,1,1000)  0.1027391E-12
        406        18        35                  1_GWF-(2,1,1000)  0.2770994E-10                  1_GWF-(2,1,1000) -0.4250370E-13
        407        18        36                  1_GWF-(2,1,1000)  0.2350575E-10                  1_GWF-(2,1,1000) -0.1113556E-12
        408        18        37                  1_GWF-(2,1,1000) -0.6410127E-12                  1_GWF-(2,1,1000) -0.1089623E-12
        409        18        38                  1_GWF-(2,1,1000)  0.1418635E-10                  1_GWF-(2,1,1000) -0.1708489E-12
        410        18        39                  1_GWF-(2,1,1000) -0.6865056E-12                  1_GWF-(2,1,1000) -0.1656384E-12
        411        18        40                  1_GWF-(2,1,1000) -0.3887998E-12                  1_GWF-(2,1,1000) -0.1749807E-12
        412        18        41                  1_GWF-(2,1,1000) -0.9122797E-12                  1_GWF-(2,1,1000) -0.1695340E-12
        413        19         1                  1_GWF-(2,1,1000)  0.8571464E-06                   1_GWF-(2,1,991)  0.1667555E-10
        414        19         2                  1_GWF-(2,1,1000)  0.1216554E-05                   1_GWF-(2,1,993)  0.6563204E-11
        415        19         3                  1_GWF-(2,1,1000) -0.3988457E-05                   1_GWF-(2,1,993)  0.1632105E-11
        416        19         4                  1_GWF-(2,1,1000) -0.3105693E-05                   1_GWF-(2,1,991)  0.1884320E-12
        417        19         5                  1_GWF-(2,1,1000) -0.4593555E-06                   1_GWF-(2,1,309)  0.1465704E-12
        418        19         6                  1_GWF-(2,1,1000)  0.4668035E-07                   1_GWF-(2,1,291)  0.1115152E-12
        419        19         7                  1_GWF-(2,1,1000) -0.1149359E-10                   1_GWF-(2,1,279)  0.1009090E-12
        420        19         8                  1_GWF-(2,1,1000) -0.2019091E-10                   1_GWF-(2,1,269)  0.9176287E-13
        421        19         9                  1_GWF-(2,1,1000) -0.1559618E-10                   1_GWF-(2,1,257)  0.8249935E-13
        422        19        10                  1_GWF-(2,1,1000) -0.8162720E-11                   1_GWF-(2,1,245)  0.7629348E-13
        423        19        11                  1_GWF-(2,1,1000) -0.6089921E-11                   1_GWF-(2,1,235)  0.7130649E-13
        424        19        12                  1_GWF-(2,1,1000) -0.4821894E-11                   1_GWF-(2,1,225)  0.6734893E-13
        425        19        13                  1_GWF-(2,1,1000) -0.3703156E-11                   1_GWF-(2,1,217)  0.6427566E-13
        426        19        14                  1_GWF-(2,1,1000) -0.1558854E-11                   1_GWF-(2,1,215)  0.6270415E-13
        427        19        15                  1_GWF-(2,1,1000) -0.1417452E-11                   1_GWF-(2,1,211)  0.6128963E-13
        428        19        16                  1_GWF-(2,1,1000) -0.2243688E-11                   1_GWF-(2,1,205)  0.5921777E-13
        429        19        17                  1_GWF-(2,1,1000) -0.1884854E-11                   1_GWF-(2,1,201)  0.5752464E-13
        430        19        18                  1_GWF-(2,1,1000) -0.1956534E-11                   1_GWF-(2,1,195)  0.5594148E-13
        431        19        19                  1_GWF-(2,1,1000) -0.1568910E-11                   1_GWF-(2,1,191)  0.5467988E-13
        432        19        20                  1_GWF-(2,1,1000) -0.1291493E-11                   1_GWF-(2,1,189)  0.5360086E-13
        433        19        21                  1_GWF-(2,1,1000) -0.1062199E-11                   1_GWF-(2,1,185)  0.5270584E-13
        434        19        22                  1_GWF-(2,1,1000) -0.1117193E-11                   1_GWF-(2,1,181)  0.5168581E-13
        435        19        23                  1_GWF-(2,1,1000) -0.8946745E-12                   1_GWF-(2,1,179)  0.5085882E-13
        436        19        24                  1_GWF-(2,1,1000) -0.6055031E-12                   1_GWF-(2,1,177)  0.5034427E-13
        437        19        25                  1_GWF-(2,1,1000) -0.5414539E-12                   1_GWF-(2,1,175)  0.4988184E-13
        438        19        26                  1_GWF-(2,1,1000) -0.3601513E-12                   1_GWF-(2,1,173)  0.4952867E-13
        439        19        27                  1_GWF-(2,1,1000) -0.3400761E-12                   1_GWF-(2,1,173)  0.4919771E-13
        440        19        28                  1_GWF-(2,1,1000) -0.6287762E-12                  1_GWF-(1,1,1000) -0.5058014E-13
        441        19        29                  1_GWF-(2,1,1000) -0.5747694E-12                   1_GWF-(2,1,167)  0.4783266E-13
        442        19        30                  1_GWF-(2,1,1000) -0.3919008E-12                  1_GWF-(1,1,1000) -0.7878512E-13
        443        19        31                  1_GWF-(2,1,1000) -0.2078059E-12                  1_GWF-(1,1,1000) -0.7515758E-13
        444        19        32                  1_GWF-(2,1,1000) -0.4247129E-12                   1_GWF-(2,1,163)  0.4687023E-13
        445        19        33                  1_GWF-(2,1,1000) -0.6395862E-12                   1_GWF-(2,1,161)  0.4631493E-13
        446        19        34                  1_GWF-(2,1,1000) -0.6350540E-12                   1_GWF-(2,1,159)  0.4574964E-13
        447        19        35                  1_GWF-(2,1,1000) -0.6581797E-12                   1_GWF-(2,1,157)  0.4515845E-13
        448        19        36                  1_GWF-(2,1,1000) -0.2407309E-12                  1_GWF-(1,1,1000) -0.5508419E-13
        449        19        37                  1_GWF-(2,1,1000) -0.2800572E-12                  1_GWF-(1,1,1000) -0.5207331E-13
        450        19        38                  1_GWF-(2,1,1000) -0.4417527E-12                   1_GWF-(2,1,153)  0.4428477E-13
        451        19        39                  1_GWF-(2,1,1000) -0.4022636E-12                   1_GWF-(2,1,151)  0.4387348E-13
        452        19        40                  1_GWF-(2,1,1000) -0.7777119E-12                   1_GWF-(2,1,147)  0.4310980E-13
        453        19        41                  1_GWF-(2,1,1000) -0.6423074E-12                   1_GWF-(2,1,143)  0.4249253E-13
        454        19        42                  1_GWF-(2,1,1000) -0.5354880E-12                   1_GWF-(2,1,141)  0.4203264E-13
        455        19        43                  1_GWF-(2,1,1000) -0.4304521E-12                   1_GWF-(2,1,139)  0.4166478E-13
        456        19        44                  1_GWF-(2,1,1000) -0.7104156E-12                   1_GWF-(2,1,135)  0.4103050E-13
        457        19        45                  1_GWF-(2,1,1000) -0.5615282E-12                   1_GWF-(2,1,133)  0.4052058E-13
        458        19        46                   1_GWF-(2,1,999) -0.1176843E-08                   1_GWF-(2,1,133)  0.4046645E-13
        459        19        47                  1_GWF-(2,1,1000) -0.2546485E-12                   1_GWF-(2,1,131)  0.4021001E-13
        460        19        48                  1_GWF-(2,1,1000) -0.3722312E-12                   1_GWF-(2,1,129)  0.3977785E-13
        461        19        49                  1_GWF-(2,1,1000) -0.4486726E-12                   1_GWF-(2,1,127)  0.3926823E-13
        462        19        50                   1_GWF-(2,1,999)  0.1570332E-08                   1_GWF-(2,1,127)  0.3942255E-13
        463        19        51                  1_GWF-(2,1,1000) -0.2494024E-12                   1_GWF-(2,1,127)  0.3928238E-13
        464        19        52                  1_GWF-(2,1,1000) -0.4876418E-12                   1_GWF-(2,1,125)  0.3897901E-13
        465        19        53                  1_GWF-(2,1,1000) -0.4786690E-12                   1_GWF-(2,1,123)  0.3862881E-13
        466        19        54                  1_GWF-(2,1,1000) -0.7153256E-12                   1_GWF-(2,1,119)  0.3810497E-13
        467        19        55                  1_GWF-(2,1,1000) -0.5536636E-12                   1_GWF-(2,1,117)  0.3767955E-13
        468        19        56                  1_GWF-(2,1,1000) -0.5961272E-13                   1_GWF-(2,1,115)  0.3755718E-13
        469        19        57                  1_GWF-(2,1,1000) -0.2262507E-12                   1_GWF-(2,1,113)  0.3730043E-13
        470        19        58                  1_GWF-(2,1,1000) -0.3033037E-12                   1_GWF-(2,1,111)  0.3695995E-13
        471        19        59                  1_GWF-(2,1,1000) -0.3476801E-12                   1_GWF-(2,1,109)  0.3658420E-13
        472        19        60                  1_GWF-(2,1,1000) -0.5188089E-12                   1_GWF-(2,1,105)  0.3605430E-13
        473        19        61                  1_GWF-(2,1,1000) -0.5429109E-12                   1_GWF-(2,1,101)  0.3552508E-13
        474        19        62                  1_GWF-(2,1,1000) -0.1308018E-12                   1_GWF-(2,1,101)  0.3537421E-13
        475        19        63                  1_GWF-(2,1,1000) -0.1808046E-12                    1_GWF-(2,1,99)  0.3517854E-13
        476        19        64                  1_GWF-(2,1,1000) -0.1852380E-12                    1_GWF-(2,1,97)  0.3494814E-13
        477        19        65                  1_GWF-(2,1,1000) -0.1670076E-12                    1_GWF-(2,1,95)  0.3473786E-13
        478        19        66                  1_GWF-(2,1,1000) -0.2987889E-12                    1_GWF-(2,1,93)  0.3445938E-13
        479        19        67                  1_GWF-(2,1,1000) -0.2763487E-12                    1_GWF-(2,1,93)  0.3420898E-13
        480        19        68                  1_GWF-(2,1,1000) -0.6770563E-12                    1_GWF-(2,1,87)  0.3358368E-13
        481        19        69                  1_GWF-(2,1,1000) -0.5999545E-12                    1_GWF-(2,1,81)  0.3305321E-13
        482        19        70                  1_GWF-(2,1,1000) -0.5311921E-12                    1_GWF-(2,1,77)  0.3263437E-13
        483        19        71                  1_GWF-(2,1,1000) -0.3737315E-12                    1_GWF-(2,1,75)  0.3233806E-13
        484        19        72                  1_GWF-(2,1,1000) -0.1378692E-12                    1_GWF-(2,1,73)  0.3220347E-13
        485        19        73                  1_GWF-(2,1,1000) -0.1287208E-12                    1_GWF-(2,1,71)  0.3207520E-13
        486        19        74                  1_GWF-(2,1,1000) -0.1709195E-12                    1_GWF-(2,1,71)  0.3189645E-13
        487        19        75                  1_GWF-(2,1,1000) -0.1612865E-12                    1_GWF-(2,1,69)  0.3172933E-13
        488        19        76                  1_GWF-(2,1,1000) -0.8796082E-13                  1_GWF-(2,1,1000) -0.5782082E-13
        489        19        77                  1_GWF-(2,1,1000) -0.8564964E-13                  1_GWF-(2,1,1000) -0.5490727E-13
        490        19        78                  1_GWF-(2,1,1000) -0.8709218E-13                    1_GWF-(2,1,65)  0.3141910E-13
        491        19        79                  1_GWF-(2,1,1000) -0.8579937E-13                    1_GWF-(2,1,65)  0.3133295E-13
        492        19        80                  1_GWF-(2,1,1000) -0.1187277E-12                    1_GWF-(2,1,63)  0.3122478E-13
        493        19        81                  1_GWF-(2,1,1000) -0.1141323E-12                    1_GWF-(2,1,61)  0.3111959E-13
        494        19        82                  1_GWF-(2,1,1000) -0.1528171E-12                    1_GWF-(2,1,59)  0.3099312E-13
        495        19        83                  1_GWF-(2,1,1000) -0.1728678E-12                    1_GWF-(2,1,59)  0.3085083E-13
        496        19        84                  1_GWF-(2,1,1000) -0.3960197E-13                    1_GWF-(2,1,57)  0.3078353E-13
        497        19        85                  1_GWF-(2,1,1000) -0.5183844E-13                    1_GWF-(2,1,55)  0.3070363E-13
        498        19        86                  1_GWF-(2,1,1000) -0.1219862E-12                    1_GWF-(2,1,53)  0.3054420E-13
        499        19        87                  1_GWF-(2,1,1000) -0.1229741E-12                    1_GWF-(2,1,51)  0.3039116E-13
        500        19        88                  1_GWF-(2,1,1000) -0.2161750E-12                  1_GWF-(1,1,1000)  0.5025356E-13
        501        19        89                  1_GWF-(2,1,1000) -0.2007291E-12                  1_GWF-(1,1,1000)  0.4525534E-13
        502        19        90                  1_GWF-(2,1,1000) -0.1456355E-12                  1_GWF-(1,1,1000)  0.5214742E-13
        503        19        91                  1_GWF-(2,1,1000) -0.1356375E-12                  1_GWF-(1,1,1000)  0.4902637E-13
        504        19        92                  1_GWF-(2,1,1000) -0.8489261E-13                    1_GWF-(2,1,41)  0.2971766E-13
        505        19        93                  1_GWF-(2,1,1000) -0.8018062E-13                    1_GWF-(2,1,41)  0.2963189E-13
        506        19        94                  1_GWF-(2,1,1000) -0.6440517E-13                  1_GWF-(1,1,1000)  0.5348955E-13
        507        19        95                  1_GWF-(2,1,1000) -0.6299004E-13                  1_GWF-(1,1,1000)  0.5139798E-13
        508        19        96                  1_GWF-(2,1,1000) -0.1142650E-12                  1_GWF-(1,1,1000)  0.5274637E-13
        509        19        97                  1_GWF-(2,1,1000) -0.1088752E-12                  1_GWF-(1,1,1000)  0.5007641E-13
        510        19        98                  1_GWF-(2,1,1000) -0.1490318E-12                    1_GWF-(2,1,37)  0.2913148E-13
        511        19        99                  1_GWF-(2,1,1000) -0.1274799E-12                    1_GWF-(2,1,37)  0.2892559E-13
        512        19       100                  1_GWF-(2,1,1000) -0.2628636E-12                    1_GWF-(2,1,35)  0.2855997E-13
        513        19       101                  1_GWF-(2,1,1000) -0.2244870E-12                    1_GWF-(2,1,35)  0.2823224E-13
        514        19       102                  1_GWF-(2,1,1000)  0.4653258E-12                  1_GWF-(1,1,1000)  0.6062450E-13
        515        19       103                  1_GWF-(2,1,1000)  0.2476119E-12                  1_GWF-(1,1,1000)  0.6009360E-13
        516        19       104                  1_GWF-(2,1,1000) -0.1937308E-12                    1_GWF-(2,1,37)  0.2883002E-13
        517        19       105                  1_GWF-(2,1,1000) -0.1222760E-12                    1_GWF-(2,1,35)  0.2863489E-13
        518        19       106                  1_GWF-(2,1,1000) -0.2101139E-12                    1_GWF-(2,1,35)  0.2839936E-13
        519        19       107                  1_GWF-(2,1,1000) -0.1845835E-12                    1_GWF-(2,1,35)  0.2819919E-13
        520        19       108                   1_GWF-(2,1,999) -0.2970236E-08                  1_GWF-(1,1,1000)  0.7925162E-13
        521        19       109                   1_GWF-(2,1,999) -0.2477317E-08                  1_GWF-(1,1,1000)  0.7473251E-13
        522        19       110                  1_GWF-(2,1,1000) -0.1469150E-12                  1_GWF-(1,1,1000)  0.5018328E-13
        523        19       111                  1_GWF-(2,1,1000) -0.1466152E-12                  1_GWF-(1,1,1000)  0.4551644E-13
        524        19       112                  1_GWF-(2,1,1000) -0.7421977E-13                    1_GWF-(2,1,31)  0.2743623E-13
        525        19       113                  1_GWF-(2,1,1000) -0.6205590E-13                    1_GWF-(2,1,31)  0.2730707E-13
        526        19       114                  1_GWF-(2,1,1000) -0.9974181E-13                    1_GWF-(2,1,31)  0.2704380E-13
        527        19       115                  1_GWF-(2,1,1000) -0.9070769E-13                    1_GWF-(2,1,31)  0.2678052E-13
        528        19       116                  1_GWF-(2,1,1000) -0.4612668E-12                    1_GWF-(2,1,29)  0.2563254E-13
        529        19       117                  1_GWF-(2,1,1000) -0.4361808E-12                    1_GWF-(2,1,29)  0.2454778E-13
        530        19       118                  1_GWF-(2,1,1000) -0.2032660E-12                    1_GWF-(2,1,29)  0.2405363E-13
        531        19       119                  1_GWF-(2,1,1000) -0.1285371E-12                    1_GWF-(2,1,29)  0.2374415E-13
        532        19       120                  1_GWF-(2,1,1000) -0.1652340E-12                  1_GWF-(1,1,1000) -0.2857014E-13
        533        19       121                  1_GWF-(2,1,1000) -0.1357141E-12                  1_GWF-(1,1,1000) -0.2720090E-13
        534        19       122                  1_GWF-(2,1,1000) -0.6838531E-12                  1_GWF-(1,1,1000) -0.5012976E-13
        535        19       123                  1_GWF-(2,1,1000) -0.6241567E-12                  1_GWF-(1,1,1000) -0.4209963E-13
        536        19       124                  1_GWF-(2,1,1000)  0.1620224E-12                    1_GWF-(2,1,29)  0.2052874E-13
        537        19       125                   1_GWF-(2,1,999)  0.8920350E-09                    1_GWF-(2,1,29)  0.2061538E-13
        538        19       126                   1_GWF-(2,1,999)  0.1850296E-09                  1_GWF-(1,1,1000)  0.2547399E-13
        539        19       127                  1_GWF-(2,1,1000) -0.3166151E-13                  1_GWF-(1,1,1000)  0.2405318E-13
        540        20         1                  1_GWF-(2,1,1000)  0.7469356E-07                   1_GWF-(2,1,991)  0.1151382E-11
        541        20         2                  1_GWF-(2,1,1000)  0.1085797E-06                   1_GWF-(2,1,993)  0.3398873E-12
        542        20         3                  1_GWF-(2,1,1000) -0.8284609E-08                   1_GWF-(2,1,992)  0.1157419E-12
        543        20         4                  1_GWF-(2,1,1000) -0.2546358E-07                   1_GWF-(2,1,992)  0.1142697E-12
        544        20         5                  1_GWF-(2,1,1000) -0.1326620E-06                   1_GWF-(2,1,994)  0.8634615E-13
        545        20         6                  1_GWF-(2,1,1000) -0.1153363E-06                   1_GWF-(2,1,994)  0.7307238E-13
        546        20         7                  1_GWF-(2,1,1000) -0.1094466E-07                   1_GWF-(2,1,994)  0.6630863E-13
        547        20         8                  1_GWF-(2,1,1000) -0.6183192E-08                   1_GWF-(2,1,994)  0.5971186E-13
        548        20         9                  1_GWF-(2,1,1000) -0.9795525E-08                   1_GWF-(2,1,994)  0.4857864E-13
        549        20        10                  1_GWF-(2,1,1000)  0.2717480E-07                   1_GWF-(2,1,994)  0.7606873E-13
        550        20        11                  1_GWF-(2,1,1000) -0.4141581E-07                  1_GWF-(1,1,1000) -0.3512845E-13
        551        20        12                  1_GWF-(2,1,1000) -0.2935268E-07                  1_GWF-(1,1,1000)  0.2206996E-13
        552        20        13                  1_GWF-(2,1,1000) -0.1078122E-07                  1_GWF-(1,1,1000)  0.2322655E-13
        553        20        14                  1_GWF-(2,1,1000) -0.3175829E-08                  1_GWF-(1,1,1000)  0.1802347E-13
        554        20        15                  1_GWF-(2,1,1000) -0.4106028E-09                  1_GWF-(1,1,1000)  0.1780862E-13
        555        21         1                  1_GWF-(2,1,1000)  0.1172555E-08                   1_GWF-(1,1,986)  0.2497840E-11
        556        21         2                  1_GWF-(2,1,1000)  0.7008833E-09                   1_GWF-(1,1,986)  0.1198207E-11
        557        21         3                  1_GWF-(2,1,1000)  0.5276059E-09                   1_GWF-(1,1,986)  0.2853398E-12
        558        21         4                  1_GWF-(2,1,1000)  0.2249900E-09                   1_GWF-(1,1,986) -0.8492002E-13
        559        21         5                  1_GWF-(2,1,1000)  0.3126807E-10                   1_GWF-(1,1,986) -0.1225806E-12
        560        22         1                  1_GWF-(2,1,1000)  0.4934836E-10                   1_GWF-(1,1,986) -0.1170576E-12

 UBDSV1 SAVING     FLOW-JA-FACE ON UNIT   1013 AT TIME STEP      1, STRESS PERIOD      1
 UBDSV06 SAVING              CHD IN MODEL BENCHMARK_MF6    PACKAGE BENCHMARK_MF6   CONNECTED TO MODEL BENCHMARK_MF6    PACKAGE CHD              ON UNIT   1013 AT TIME STEP      1, STRESS PERIOD      1
1
  HEAD IN LAYER   1 AT END OF TIME STEP   1 IN STRESS PERIOD    1
  ---------------------------------------------------------------------------

            1           2           3           4           5           6           7           8           9          10
[...]
          551         552         553         554         555         556         557         558         559         560
          561         562         563         564         565         566         567         568         569         570
          571         572         573         574         575         576         577         578         579         580
          581         582         583         584         585         586         587         588         589         590
          591         592         593         594         595         596         597         598         599         600
          601         602         603         604         605         606         607         608         609         610
          611         612         613         614         615         616         617         618         619         620
          621         622         623         624         625         626         627         628         629         630
          631         632         633         634         635         636         637         638         639         640
          641         642         643         644         645         646         647         648         649         650
          651         652         653         654         655         656         657         658         659         660
          661         662         663         664         665         666         667         668         669         670
          671         672         673         674         675         676         677         678         679         680
          681         682         683         684         685         686         687         688         689         690
          691         692         693         694         695         696         697         698         699         700
          701         702         703         704         705         706         707         708         709         710
          711         712         713         714         715         716         717         718         719         720
          721         722         723         724         725         726         727         728         729         730
          731         732         733         734         735         736         737         738         739         740
          741         742         743         744         745         746         747         748         749         750
          751         752         753         754         755         756         757         758         759         760
          761         762         763         764         765         766         767         768         769         770
          771         772         773         774         775         776         777         778         779         780
          781         782         783         784         785         786         787         788         789         790
          791         792         793         794         795         796         797         798         799         800
          801         802         803         804         805         806         807         808         809         810
          811         812         813         814         815         816         817         818         819         820
          821         822         823         824         825         826         827         828         829         830
          831         832         833         834         835         836         837         838         839         840
          841         842         843         844         845         846         847         848         849         850
          851         852         853         854         855         856         857         858         859         860
          861         862         863         864         865         866         867         868         869         870
          871         872         873         874         875         876         877         878         879         880
          881         882         883         884         885         886         887         888         889         890
          891         892         893         894         895         896         897         898         899         900
          901         902         903         904         905         906         907         908         909         910
          911         912         913         914         915         916         917         918         919         920
          921         922         923         924         925         926         927         928         929         930
          931         932         933         934         935         936         937         938         939         940
          941         942         943         944         945         946         947         948         949         950
          951         952         953         954         955         956         957         958         959         960
          961         962         963         964         965         966         967         968         969         970
          971         972         973         974         975         976         977         978         979         980
          981         982         983         984         985         986         987         988         989         990
          991         992         993         994         995         996         997         998         999        1000
 ........................................................................................................................
   1    206.9       206.9       206.9       206.9       206.9       206.8       206.8       206.7       206.6       206.6    
        206.5       206.4       206.3       206.2       206.2       206.0       205.9       205.8       205.7       205.6    
        205.4       205.3       205.2       205.0       204.9       204.7       204.5       204.4       204.2       204.0    
        203.8       203.6       203.4       203.2       203.0       202.8       202.6       202.4       202.2       202.0    
        201.8       201.7       201.5       201.3       201.1       200.9       200.7       200.5       200.3       200.1    
        199.9       199.7       199.5       199.3       199.1       198.9       198.7       198.5       198.3       198.1    
        197.9       197.7       197.5       197.3       197.1       196.9       196.7       196.5       196.3       196.1    
        195.9       195.7       195.6       195.4       195.2       195.0       194.8       194.6       194.4       194.2    
        194.0       193.8       193.6       193.4       193.2       193.0       192.8       192.6       192.4       192.2    
        192.0       191.8       191.6       191.4       191.2       191.0       190.8       190.6       190.4       190.2    
        190.0       189.8       189.6       189.5       189.3       189.1       188.9       188.7       188.5       188.3    
        188.1       187.9       187.7       187.5       187.3       187.1       186.9       186.7       186.5       186.3    
        186.1       185.9       185.7       185.5       185.3       185.1       184.9       184.7       184.5       184.3    
        184.1       183.9       183.7       183.5       183.4       183.2       183.0       182.8       182.6       182.4    
        182.2       182.0       181.8       181.6       181.4       181.2       181.0       180.8       180.6       180.4    
        180.2       180.0       179.8       179.6       179.4       179.2       179.0       178.8       178.6       178.4    
        178.2       178.0       177.8       177.6       177.4       177.3       177.1       176.9       176.7       176.5    
        176.3       176.1       175.9       175.7       175.5       175.3       175.1       174.9       174.7       174.5    
        174.3       174.1       173.9       173.7       173.5       173.3       173.1       172.9       172.7       172.5    
        172.3       172.1       171.9       171.7       171.5       171.3       171.2       171.0       170.8       170.6    
        170.4       170.2       170.0       169.8       169.6       169.4       169.2       169.0       168.8       168.6    
        168.4       168.2       168.0       167.8       167.6       167.4       167.2       167.0       166.8       166.6    
        166.4       166.2       166.0       165.8       165.6       165.4       165.2       165.1       164.9       164.7    
        164.5       164.3       164.1       163.9       163.7       163.5       163.3       163.1       162.9       162.7    
        162.5       162.3       162.1       161.9       161.7       161.5       161.3       161.1       160.9       160.7    
        160.5       160.3       160.1       159.9       159.7       159.5       159.3       159.1       159.0       158.8    
        158.6       158.4       158.2       158.0       157.8       157.6       157.4       157.2       157.0       156.8    
        156.6       156.4       156.2       156.0       155.8       155.6       155.4       155.2       155.0       154.8    
        154.6       154.4       154.2       154.0       153.8       153.6       153.4       153.2       153.0       152.9    
        152.7       152.5       152.3       152.1       151.9       151.7       151.5       151.3       151.1       150.9    
        150.7       150.5       150.3       150.1       149.9       149.7       149.5       149.3       149.1       148.9    
        148.7       148.5       148.3       148.1       147.9       147.7       147.5       147.3       147.1       146.9    
        146.8       146.6       146.4       146.2       146.0       145.8       145.6       145.4       145.2       145.0    
        144.8       144.6       144.4       144.2       144.0       143.8       143.6       143.4       143.2       143.0    
        142.8       142.6       142.4       142.2       142.0       141.8       141.6       141.4       141.2       141.0    
        140.8       140.7       140.5       140.3       140.1       139.9       139.7       139.5       139.3       139.1    
        138.9       138.7       138.5       138.3       138.1       137.9       137.7       137.5       137.3       137.1    
        136.9       136.7       136.5       136.3       136.1       135.9       135.7       135.5       135.3       135.1    
        134.9       134.7       134.6       134.4       134.2       134.0       133.8       133.6       133.4       133.2    
        133.0       132.8       132.6       132.4       132.2       132.0       131.8       131.6       131.4       131.2    
        131.0       130.8       130.6       130.4       130.2       130.0       129.8       129.6       129.4       129.2    
        129.0       128.8       128.6       128.5       128.3       128.1       127.9       127.7       127.5       127.3    
        127.1       126.9       126.7       126.5       126.3       126.1       125.9       125.7       125.5       125.3    
        125.1       124.9       124.7       124.5       124.3       124.1       123.9       123.7       123.5       123.3    
        123.1       122.9       122.7       122.5       122.4       122.2       122.0       121.8       121.6       121.4    
        121.2       121.0       120.8       120.6       120.4       120.2       120.0       119.8       119.6       119.4    
        119.2       119.0       118.8       118.6       118.4       118.2       118.0       117.8       117.6       117.4    
        117.2       117.0       116.8       116.6       116.4       116.3       116.1       115.9       115.7       115.5    
        115.3       115.1       114.9       114.7       114.5       114.3       114.1       113.9       113.7       113.5    
        113.3       113.1       112.9       112.7       112.5       112.3       112.1       111.9       111.7       111.5    
        111.3       111.1       110.9       110.7       110.5       110.3       110.2       110.0       109.8       109.6    
        109.4       109.2       109.0       108.8       108.6       108.4       108.2       108.0       107.8       107.6    
        107.4       107.2       107.0       106.8       106.6       106.4       106.2       106.0       105.8       105.6    
        105.4       105.2       105.0       104.8       104.6       104.4       104.2       104.0       103.9       103.7    
        103.5       103.3       103.1       102.9       102.7       102.5       102.3       102.1       101.9       101.7    
        101.5       101.3       101.1       100.9       100.7       100.5       100.3       100.1       99.92       99.72    
        99.52       99.33       99.13       98.93       98.74       98.54       98.34       98.15       97.95       97.75    
        97.56       97.36       97.16       96.97       96.77       96.57       96.38       96.18       95.98       95.79    
        95.59       95.39       95.19       95.00       94.80       94.60       94.41       94.21       94.01       93.82    
        93.62       93.42       93.23       93.03       92.83       92.64       92.44       92.24       92.05       91.85    
        91.65       91.46       91.26       91.06       90.87       90.67       90.47       90.28       90.08       89.88    
        89.69       89.49       89.29       89.09       88.90       88.70       88.50       88.31       88.11       87.91    
        87.72       87.52       87.32       87.13       86.93       86.73       86.54       86.34       86.14       85.95    
        85.75       85.55       85.36       85.16       84.96       84.77       84.57       84.37       84.18       83.98    
        83.78       83.59       83.39       83.19       82.99       82.80       82.60       82.40       82.21       82.01    
        81.81       81.62       81.42       81.22       81.03       80.83       80.63       80.44       80.24       80.04    
        79.85       79.65       79.45       79.26       79.06       78.86       78.67       78.47       78.27       78.08    
        77.88       77.68       77.49       77.29       77.09       76.89       76.70       76.50       76.30       76.11    
        75.91       75.71       75.52       75.32       75.12       74.93       74.73       74.53       74.34       74.14    
        73.94       73.75       73.55       73.35       73.16       72.96       72.76       72.57       72.37       72.17    
        71.98       71.78       71.58       71.38       71.19       70.99       70.79       70.60       70.40       70.20    
        70.01       69.81       69.61       69.42       69.22       69.02       68.83       68.63       68.43       68.24    
        68.04       67.84       67.65       67.45       67.25       67.06       66.86       66.66       66.47       66.27    
        66.07       65.88       65.68       65.48       65.28       65.09       64.89       64.69       64.50       64.30    
        64.10       63.91       63.71       63.51       63.32       63.12       62.92       62.73       62.53       62.33    
        62.14       61.94       61.74       61.55       61.35       61.15       60.96       60.76       60.56       60.37    
        60.17       59.97       59.78       59.58       59.38       59.18       58.99       58.79       58.59       58.40    
        58.20       58.00       57.81       57.61       57.41       57.22       57.02       56.82       56.63       56.43    
        56.23       56.04       55.84       55.64       55.45       55.25       55.05       54.86       54.66       54.46    
        54.27       54.07       53.87       53.68       53.48       53.28       53.08       52.89       52.69       52.49    
        52.30       52.10       51.90       51.71       51.51       51.31       51.12       50.92       50.72       50.53    
        50.33       50.13       49.94       49.74       49.54       49.35       49.15       48.95       48.76       48.56    
        48.36       48.17       47.97       47.77       47.57       47.38       47.18       46.98       46.79       46.59    
        46.39       46.20       46.00       45.80       45.61       45.41       45.21       45.02       44.82       44.62    
        44.43       44.23       44.03       43.84       43.64       43.44       43.25       43.05       42.85       42.66    
        42.46       42.26       42.07       41.87       41.67       41.48       41.28       41.08       40.88       40.69    
        40.49       40.29       40.10       39.90       39.70       39.51       39.31       39.11       38.92       38.72    
        38.52       38.33       38.13       37.93       37.74       37.54       37.34       37.15       36.95       36.75    
        36.56       36.36       36.16       35.97       35.77       35.57       35.38       35.18       34.98       34.79    
        34.59       34.39       34.20       34.00       33.81       33.61       33.41       33.22       33.02       32.82    
        32.63       32.43       32.23       32.04       31.84       31.65       31.45       31.25       31.06       30.86    
        30.67       30.47       30.27       30.08       29.88       29.69       29.49       29.30       29.10       28.91    
        28.71       28.51       28.32       28.12       27.93       27.74       27.54       27.35       27.15       26.96    
        26.76       26.57       26.38       26.18       25.99       25.80       25.61       25.41       25.22       25.03    
        24.84       24.65       24.46       24.27       24.08       23.89       23.70       23.51       23.32       23.13    
        22.94       22.76       22.57       22.38       22.20       22.02       21.83       21.65       21.47       21.28    
        21.10       20.92       20.74       20.57       20.39       20.21       20.04       19.86       19.69       19.52    
        19.35       19.18       19.01       18.84       18.68       18.51       18.35       18.19       18.03       17.87    
        17.71       17.55       17.40       17.25       17.09       16.94       16.80       16.65       16.50       16.36    
        16.22       16.08       15.94       15.80       15.67       15.53       15.40       15.27       15.13       15.00    

 HEAD WILL BE SAVED ON UNIT 1014 AT END OF TIME STEP    1, STRESS PERIOD    1


  VOLUME BUDGET FOR ENTIRE MODEL AT END OF TIME STEP    1, STRESS PERIOD   1
  ---------------------------------------------------------------------------------------------------

     CUMULATIVE VOLUME      L**3       RATES FOR THIS TIME STEP      L**3/T          PACKAGE NAME    
     ------------------                 ------------------------                     ----------------

           IN:                                      IN:
           ---                                      ---
                 RCH =       6.3356E-05                   RCH =       6.3356E-05     RCH             
                 CHD =           0.0000                   CHD =           0.0000     CHD             

            TOTAL IN =       6.3356E-05              TOTAL IN =       6.3356E-05

          OUT:                                     OUT:
          ----                                     ----
                 RCH =           0.0000                   RCH =           0.0000     RCH             
                 CHD =       6.3356E-05                   CHD =       6.3356E-05     CHD             

           TOTAL OUT =       6.3356E-05             TOTAL OUT =       6.3356E-05

            IN - OUT =      -1.6024E-13              IN - OUT =      -1.6024E-13

 PERCENT DISCREPANCY =          -0.00     PERCENT DISCREPANCY =          -0.00




         TIME SUMMARY AT END OF TIME STEP    1 IN STRESS PERIOD    1
                          TIME STEP LENGTH =    1.00000    
                        STRESS PERIOD TIME =    1.00000    
                     TOTAL SIMULATION TIME =    1.00000    
